CN_R1267_neutral
 OpenBabel03202104243D

 26 28  0  0  0  0  0  0  0  0999 V2000
    0.0583    1.0068    0.0000 N   0  0  0  0  0  0  0  0  0  0  0  0
   -0.8084   -1.6869    0.0000 N   0  0  0  0  0  0  0  0  0  0  0  0
   -1.2412    0.6970    0.0000 C   0  0  0  0  0  0  0  0  0  0  0  0
   -1.6830   -0.6773    0.0000 C   0  0  0  0  0  0  0  0  0  0  0  0
    0.9337   -0.0037    0.0000 C   0  0  0  0  0  0  0  0  0  0  0  0
    0.4953   -1.3785   -0.0000 C   0  0  0  0  0  0  0  0  0  0  0  0
   -2.2254    1.7501   -0.0000 C   0  0  0  0  0  0  0  0  0  0  0  0
   -3.0958   -0.9612   -0.0000 C   0  0  0  0  0  0  0  0  0  0  0  0
    2.3454    0.2833    0.0000 C   0  0  0  0  0  0  0  0  0  0  0  0
    1.4620   -2.4295   -0.0000 C   0  0  0  0  0  0  0  0  0  0  0  0
   -3.5691    1.4301   -0.0000 C   0  0  0  0  0  0  0  0  0  0  0  0
   -4.0030    0.0800   -0.0000 C   0  0  0  0  0  0  0  0  0  0  0  0
    3.2511   -0.7734   -0.0000 C   0  0  0  0  0  0  0  0  0  0  0  0
    2.7970   -2.1335   -0.0000 C   0  0  0  0  0  0  0  0  0  0  0  0
   -3.5462   -2.3208    0.0000 C   0  0  0  0  0  0  0  0  0  0  0  0
   -3.9504   -3.4114    0.0000 N   0  0  0  0  0  0  0  0  0  0  0  0
    2.7877    1.6432    0.0000 C   0  0  0  0  0  0  0  0  0  0  0  0
    3.1731    2.7403    0.0000 N   0  0  0  0  0  0  0  0  0  0  0  0
    1.1021   -3.4528   -0.0000 H   0  0  0  0  0  0  0  0  0  0  0  0
   -4.3072    2.2245   -0.0000 H   0  0  0  0  0  0  0  0  0  0  0  0
    3.5407   -2.9226   -0.0000 H   0  0  0  0  0  0  0  0  0  0  0  0
    4.6643   -0.5346   -0.0000 C   0  0  0  0  0  0  0  0  0  0  0  0
    5.8186   -0.3923   -0.0000 N   0  0  0  0  0  0  0  0  0  0  0  0
   -5.0658   -0.1357   -0.0000 H   0  0  0  0  0  0  0  0  0  0  0  0
   -1.8095    3.1206   -0.0000 C   0  0  0  0  0  0  0  0  0  0  0  0
   -1.5268    4.2487   -0.0000 N   0  0  0  0  0  0  0  0  0  0  0  0
  2  4  2  0  0  0  0
  2  6  1  0  0  0  0
  3  4  1  0  0  0  0
  3  7  1  0  0  0  0
  3  1  2  0  0  0  0
  5  6  2  0  0  0  0
  5  9  1  0  0  0  0
  5  1  1  0  0  0  0
  7 11  2  0  0  0  0
  8  4  1  0  0  0  0
  8 15  1  0  0  0  0
  8 12  2  0  0  0  0
  9 17  1  0  0  0  0
 10  6  1  0  0  0  0
 12 11  1  0  0  0  0
 13  9  2  0  0  0  0
 14 10  2  0  0  0  0
 14 13  1  0  0  0  0
 15 16  3  0  0  0  0
 18 17  3  0  0  0  0
 19 10  1  0  0  0  0
 20 11  1  0  0  0  0
 21 14  1  0  0  0  0
 22 23  3  0  0  0  0
 22 13  1  0  0  0  0
 24 12  1  0  0  0  0
 25  7  1  0  0  0  0
 26 25  3  0  0  0  0
M  END
