CH3_R2_Anion
 OpenBabel03162120083D

 25 27  0  0  0  0  0  0  0  0999 V2000
    0.2757   -1.3462   -0.0073 N   0  0  0  0  0  0  0  0  0  0  0  0
    0.5474    1.5251    0.0038 N   0  0  0  0  0  0  0  0  0  0  0  0
   -0.8074   -0.5240   -0.0047 C   0  0  0  0  0  0  0  0  0  0  0  0
   -0.6711    0.9176    0.0004 C   0  0  0  0  0  0  0  0  0  0  0  0
    1.4946   -0.7402   -0.0032 C   0  0  0  0  0  0  0  0  0  0  0  0
    1.6308    0.7025    0.0030 C   0  0  0  0  0  0  0  0  0  0  0  0
   -3.2623   -0.2908   -0.0135 C   0  0  0  0  0  0  0  0  0  0  0  0
   -2.1122   -1.0808   -0.0125 C   0  0  0  0  0  0  0  0  0  0  0  0
   -1.8522    1.6994   -0.0056 C   0  0  0  0  0  0  0  0  0  0  0  0
   -3.1161    1.1128   -0.0131 C   0  0  0  0  0  0  0  0  0  0  0  0
    2.6725   -1.5305   -0.0037 C   0  0  0  0  0  0  0  0  0  0  0  0
    2.9365    1.2585    0.0081 C   0  0  0  0  0  0  0  0  0  0  0  0
   -4.6369   -0.9235    0.0260 C   0  0  0  0  0  0  0  0  0  0  0  0
    3.9392   -0.9507    0.0015 C   0  0  0  0  0  0  0  0  0  0  0  0
    4.0718    0.4516    0.0075 C   0  0  0  0  0  0  0  0  0  0  0  0
   -2.1842   -2.1670   -0.0191 H   0  0  0  0  0  0  0  0  0  0  0  0
   -1.7359    2.7806   -0.0099 H   0  0  0  0  0  0  0  0  0  0  0  0
   -4.0034    1.7446   -0.0202 H   0  0  0  0  0  0  0  0  0  0  0  0
    2.5466   -2.6107   -0.0082 H   0  0  0  0  0  0  0  0  0  0  0  0
    3.0152    2.3431    0.0126 H   0  0  0  0  0  0  0  0  0  0  0  0
   -4.9787   -1.0980    1.0571 H   0  0  0  0  0  0  0  0  0  0  0  0
   -5.3861   -0.2846   -0.4578 H   0  0  0  0  0  0  0  0  0  0  0  0
   -4.6451   -1.8944   -0.4836 H   0  0  0  0  0  0  0  0  0  0  0  0
    4.8254   -1.5823    0.0011 H   0  0  0  0  0  0  0  0  0  0  0  0
    5.0608    0.9058    0.0117 H   0  0  0  0  0  0  0  0  0  0  0  0
  1  3  2  0  0  0  0
  1  5  1  0  0  0  0
  3  4  1  0  0  0  0
  4  2  2  0  0  0  0
  5  6  1  0  0  0  0
  6  2  1  0  0  0  0
  6 12  2  0  0  0  0
  7 10  1  0  0  0  0
  7  8  2  0  0  0  0
  7 13  1  0  0  0  0
  8  3  1  0  0  0  0
  9  4  1  0  0  0  0
 10  9  2  0  0  0  0
 11  5  2  0  0  0  0
 11 14  1  0  0  0  0
 12 20  1  0  0  0  0
 13 21  1  0  0  0  0
 14 15  2  0  0  0  0
 15 12  1  0  0  0  0
 15 25  1  0  0  0  0
 16  8  1  0  0  0  0
 17  9  1  0  0  0  0
 18 10  1  0  0  0  0
 19 11  1  0  0  0  0
 22 13  1  0  0  0  0
 23 13  1  0  0  0  0
 24 14  1  0  0  0  0
M  END
