CHO_R2_Anion
 OpenBabel02182105543D

 24 26  0  0  0  0  0  0  0  0999 V2000
    5.3472   -0.2687    0.0000 O   0  0  0  0  0  0  0  0  0  0  0  0
   -0.5946   -1.3497    0.0000 N   0  0  0  0  0  0  0  0  0  0  0  0
   -0.8613    1.5158   -0.0000 N   0  0  0  0  0  0  0  0  0  0  0  0
    0.4912   -0.5246   -0.0000 C   0  0  0  0  0  0  0  0  0  0  0  0
    0.3404    0.9224   -0.0000 C   0  0  0  0  0  0  0  0  0  0  0  0
   -1.8105   -0.7474    0.0000 C   0  0  0  0  0  0  0  0  0  0  0  0
   -1.9527    0.6901    0.0000 C   0  0  0  0  0  0  0  0  0  0  0  0
    1.7904   -1.0657   -0.0000 C   0  0  0  0  0  0  0  0  0  0  0  0
    1.5265    1.7286   -0.0001 C   0  0  0  0  0  0  0  0  0  0  0  0
    2.9408   -0.2515   -0.0000 C   0  0  0  0  0  0  0  0  0  0  0  0
    2.7798    1.1638   -0.0001 C   0  0  0  0  0  0  0  0  0  0  0  0
   -2.9893   -1.5418    0.0001 C   0  0  0  0  0  0  0  0  0  0  0  0
   -3.2511    1.2500    0.0000 C   0  0  0  0  0  0  0  0  0  0  0  0
   -4.2503   -0.9601    0.0001 C   0  0  0  0  0  0  0  0  0  0  0  0
   -4.3854    0.4439    0.0000 C   0  0  0  0  0  0  0  0  0  0  0  0
    4.2574   -0.8573   -0.0001 C   0  0  0  0  0  0  0  0  0  0  0  0
    1.8854   -2.1498   -0.0000 H   0  0  0  0  0  0  0  0  0  0  0  0
    1.3897    2.8068   -0.0001 H   0  0  0  0  0  0  0  0  0  0  0  0
    3.6735    1.7815   -0.0001 H   0  0  0  0  0  0  0  0  0  0  0  0
   -2.8635   -2.6214    0.0001 H   0  0  0  0  0  0  0  0  0  0  0  0
   -3.3280    2.3343    0.0000 H   0  0  0  0  0  0  0  0  0  0  0  0
   -5.1370   -1.5904    0.0001 H   0  0  0  0  0  0  0  0  0  0  0  0
   -5.3745    0.8961    0.0000 H   0  0  0  0  0  0  0  0  0  0  0  0
    4.2447   -1.9714    0.0001 H   0  0  0  0  0  0  0  0  0  0  0  0
  2  6  1  0  0  0  0
  3  5  2  0  0  0  0
  3  7  1  0  0  0  0
  4  8  1  0  0  0  0
  4  2  2  0  0  0  0
  5  4  1  0  0  0  0
  6 12  1  0  0  0  0
  7 13  1  0  0  0  0
  7  6  2  0  0  0  0
  8 17  1  0  0  0  0
  9 11  2  0  0  0  0
  9  5  1  0  0  0  0
 10  8  2  0  0  0  0
 11 10  1  0  0  0  0
 12 20  1  0  0  0  0
 13 15  2  0  0  0  0
 14 12  2  0  0  0  0
 14 22  1  0  0  0  0
 15 23  1  0  0  0  0
 15 14  1  0  0  0  0
 16 10  1  0  0  0  0
 16  1  2  0  0  0  0
 16 24  1  0  0  0  0
 18  9  1  0  0  0  0
 19 11  1  0  0  0  0
 21 13  1  0  0  0  0
M  END
