CN_R1367_anion
 OpenBabel03162120083D

 26 28  0  0  0  0  0  0  0  0999 V2000
   -0.2279   -1.1220   -0.0000 N   0  0  0  0  0  0  0  0  0  0  0  0
    0.3423    1.6793    0.0000 N   0  0  0  0  0  0  0  0  0  0  0  0
    1.0468   -0.6552   -0.0000 C   0  0  0  0  0  0  0  0  0  0  0  0
    1.3255    0.7650    0.0000 C   0  0  0  0  0  0  0  0  0  0  0  0
   -1.2137   -0.2051    0.0000 C   0  0  0  0  0  0  0  0  0  0  0  0
   -0.9293    1.2151    0.0000 C   0  0  0  0  0  0  0  0  0  0  0  0
    2.1153   -1.5745   -0.0000 C   0  0  0  0  0  0  0  0  0  0  0  0
    2.6974    1.1862   -0.0000 C   0  0  0  0  0  0  0  0  0  0  0  0
   -2.5795   -0.6313    0.0000 C   0  0  0  0  0  0  0  0  0  0  0  0
   -2.0027    2.1376    0.0000 C   0  0  0  0  0  0  0  0  0  0  0  0
    3.4460   -1.1283   -0.0000 C   0  0  0  0  0  0  0  0  0  0  0  0
    3.7343    0.2519   -0.0000 C   0  0  0  0  0  0  0  0  0  0  0  0
   -3.6252    0.3270    0.0000 C   0  0  0  0  0  0  0  0  0  0  0  0
   -3.3176    1.7051    0.0000 C   0  0  0  0  0  0  0  0  0  0  0  0
    3.0173    2.5810    0.0000 C   0  0  0  0  0  0  0  0  0  0  0  0
    3.3366    3.7022    0.0000 N   0  0  0  0  0  0  0  0  0  0  0  0
   -1.7575    3.1948    0.0000 H   0  0  0  0  0  0  0  0  0  0  0  0
   -4.1322    2.4218    0.0000 H   0  0  0  0  0  0  0  0  0  0  0  0
    4.5246   -2.0692   -0.0000 C   0  0  0  0  0  0  0  0  0  0  0  0
    5.4087   -2.8300   -0.0000 N   0  0  0  0  0  0  0  0  0  0  0  0
    4.7644    0.5900   -0.0000 H   0  0  0  0  0  0  0  0  0  0  0  0
    1.8791   -2.6330   -0.0000 H   0  0  0  0  0  0  0  0  0  0  0  0
   -2.8745   -2.0276    0.0000 C   0  0  0  0  0  0  0  0  0  0  0  0
   -3.1465   -3.1613   -0.0000 N   0  0  0  0  0  0  0  0  0  0  0  0
   -4.9989   -0.0649    0.0000 C   0  0  0  0  0  0  0  0  0  0  0  0
   -6.1343   -0.3325    0.0000 N   0  0  0  0  0  0  0  0  0  0  0  0
  1  5  2  0  0  0  0
  1  3  1  0  0  0  0
  4  3  1  0  0  0  0
  4  2  1  0  0  0  0
  5  6  1  0  0  0  0
  6  2  2  0  0  0  0
  7 11  1  0  0  0  0
  7  3  2  0  0  0  0
  8  4  2  0  0  0  0
  9  5  1  0  0  0  0
  9 13  2  0  0  0  0
 10  6  1  0  0  0  0
 12 11  2  0  0  0  0
 12  8  1  0  0  0  0
 14 13  1  0  0  0  0
 14 10  2  0  0  0  0
 14 18  1  0  0  0  0
 15  8  1  0  0  0  0
 15 16  3  0  0  0  0
 17 10  1  0  0  0  0
 19 20  3  0  0  0  0
 19 11  1  0  0  0  0
 21 12  1  0  0  0  0
 22  7  1  0  0  0  0
 23  9  1  0  0  0  0
 24 23  3  0  0  0  0
 25 26  3  0  0  0  0
 25 13  1  0  0  0  0
M  END
