CN_R1379_anion
 OpenBabel02182105543D

 26 28  0  0  0  0  0  0  0  0999 V2000
    0.0000   -1.1341    0.0000 N   0  0  0  0  0  0  0  0  0  0  0  0
    0.0000    1.7289   -0.0000 N   0  0  0  0  0  0  0  0  0  0  0  0
    1.1476   -0.4295   -0.0000 C   0  0  0  0  0  0  0  0  0  0  0  0
    1.1550    1.0185   -0.0000 C   0  0  0  0  0  0  0  0  0  0  0  0
   -1.1476   -0.4295    0.0000 C   0  0  0  0  0  0  0  0  0  0  0  0
   -1.1550    1.0185    0.0000 C   0  0  0  0  0  0  0  0  0  0  0  0
    2.4077   -1.1113   -0.0000 C   0  0  0  0  0  0  0  0  0  0  0  0
    2.3855    1.7086   -0.0000 C   0  0  0  0  0  0  0  0  0  0  0  0
   -2.4077   -1.1113    0.0000 C   0  0  0  0  0  0  0  0  0  0  0  0
   -2.3855    1.7086    0.0000 C   0  0  0  0  0  0  0  0  0  0  0  0
    3.6104   -0.3996   -0.0000 C   0  0  0  0  0  0  0  0  0  0  0  0
    3.6018    1.0092   -0.0000 C   0  0  0  0  0  0  0  0  0  0  0  0
   -3.6104   -0.3996    0.0000 C   0  0  0  0  0  0  0  0  0  0  0  0
   -3.6018    1.0092    0.0000 C   0  0  0  0  0  0  0  0  0  0  0  0
   -4.5522   -0.9364    0.0000 H   0  0  0  0  0  0  0  0  0  0  0  0
   -2.4590   -2.5419    0.0000 C   0  0  0  0  0  0  0  0  0  0  0  0
   -2.5824   -3.7007    0.0000 N   0  0  0  0  0  0  0  0  0  0  0  0
   -2.3637    2.7929    0.0000 H   0  0  0  0  0  0  0  0  0  0  0  0
   -4.8431    1.7221    0.0000 C   0  0  0  0  0  0  0  0  0  0  0  0
   -5.8554    2.3014    0.0000 N   0  0  0  0  0  0  0  0  0  0  0  0
    4.5522   -0.9364   -0.0000 H   0  0  0  0  0  0  0  0  0  0  0  0
    2.3637    2.7929   -0.0000 H   0  0  0  0  0  0  0  0  0  0  0  0
    2.4590   -2.5419   -0.0000 C   0  0  0  0  0  0  0  0  0  0  0  0
    2.5824   -3.7007   -0.0000 N   0  0  0  0  0  0  0  0  0  0  0  0
    4.8431    1.7221   -0.0000 C   0  0  0  0  0  0  0  0  0  0  0  0
    5.8554    2.3014   -0.0000 N   0  0  0  0  0  0  0  0  0  0  0  0
  2  6  2  0  0  0  0
  2  4  1  0  0  0  0
  3  1  1  0  0  0  0
  4  3  1  0  0  0  0
  5  1  2  0  0  0  0
  5  9  1  0  0  0  0
  6  5  1  0  0  0  0
  7  3  2  0  0  0  0
  8 12  1  0  0  0  0
  8  4  2  0  0  0  0
 10  6  1  0  0  0  0
 10 14  2  0  0  0  0
 11  7  1  0  0  0  0
 12 11  2  0  0  0  0
 13 14  1  0  0  0  0
 13 15  1  0  0  0  0
 13  9  2  0  0  0  0
 14 19  1  0  0  0  0
 16 17  3  0  0  0  0
 16  9  1  0  0  0  0
 18 10  1  0  0  0  0
 19 20  3  0  0  0  0
 21 11  1  0  0  0  0
 22  8  1  0  0  0  0
 23  7  1  0  0  0  0
 24 23  3  0  0  0  0
 25 12  1  0  0  0  0
 26 25  3  0  0  0  0
M  END
