CN_R2_Anion
 OpenBabel03162103393D

 23 25  0  0  0  0  0  0  0  0999 V2000
   -0.4496   -1.3191   -0.0001 N   0  0  0  0  0  0  0  0  0  0  0  0
   -0.8267    1.5360    0.0002 N   0  0  0  0  0  0  0  0  0  0  0  0
    5.4485   -1.0475   -0.0004 N   0  0  0  0  0  0  0  0  0  0  0  0
    0.6013   -0.4550   -0.0001 C   0  0  0  0  0  0  0  0  0  0  0  0
    0.4016    0.9845    0.0001 C   0  0  0  0  0  0  0  0  0  0  0  0
   -1.6896   -0.7617    0.0000 C   0  0  0  0  0  0  0  0  0  0  0  0
   -1.8839    0.6702    0.0002 C   0  0  0  0  0  0  0  0  0  0  0  0
    1.9188   -0.9603   -0.0002 C   0  0  0  0  0  0  0  0  0  0  0  0
    1.5528    1.8270    0.0001 C   0  0  0  0  0  0  0  0  0  0  0  0
   -2.8356   -1.5996    0.0000 C   0  0  0  0  0  0  0  0  0  0  0  0
   -3.2042    1.1794    0.0003 C   0  0  0  0  0  0  0  0  0  0  0  0
    3.0324   -0.0989   -0.0002 C   0  0  0  0  0  0  0  0  0  0  0  0
    2.8330    1.3070   -0.0001 C   0  0  0  0  0  0  0  0  0  0  0  0
   -4.1193   -1.0669    0.0001 C   0  0  0  0  0  0  0  0  0  0  0  0
   -4.3068    0.3302    0.0003 C   0  0  0  0  0  0  0  0  0  0  0  0
    4.3574   -0.6251   -0.0003 C   0  0  0  0  0  0  0  0  0  0  0  0
    2.0509   -2.0376   -0.0003 H   0  0  0  0  0  0  0  0  0  0  0  0
    1.3842    2.9003    0.0002 H   0  0  0  0  0  0  0  0  0  0  0  0
   -2.6684   -2.6736   -0.0001 H   0  0  0  0  0  0  0  0  0  0  0  0
   -3.3228    2.2600    0.0004 H   0  0  0  0  0  0  0  0  0  0  0  0
    3.6959    1.9667   -0.0001 H   0  0  0  0  0  0  0  0  0  0  0  0
   -4.9813   -1.7307    0.0001 H   0  0  0  0  0  0  0  0  0  0  0  0
   -5.3123    0.7448    0.0004 H   0  0  0  0  0  0  0  0  0  0  0  0
  1  4  2  0  0  0  0
  1  6  1  0  0  0  0
  3 16  3  0  0  0  0
  4  5  1  0  0  0  0
  5  9  1  0  0  0  0
  5  2  2  0  0  0  0
  6  7  1  0  0  0  0
  7  2  1  0  0  0  0
  7 11  2  0  0  0  0
  8 12  2  0  0  0  0
  8  4  1  0  0  0  0
  9 18  1  0  0  0  0
 10  6  2  0  0  0  0
 10 14  1  0  0  0  0
 11 20  1  0  0  0  0
 12 13  1  0  0  0  0
 13 21  1  0  0  0  0
 13  9  2  0  0  0  0
 14 15  2  0  0  0  0
 15 11  1  0  0  0  0
 15 23  1  0  0  0  0
 16 12  1  0  0  0  0
 17  8  1  0  0  0  0
 19 10  1  0  0  0  0
 22 14  1  0  0  0  0
M  END
