CN_R146_anion
 OpenBabel02212111253D

 25 27  0  0  0  0  0  0  0  0999 V2000
    0.6347    0.9349   -0.0000 N   0  0  0  0  0  0  0  0  0  0  0  0
   -0.4566   -1.7013    0.0000 N   0  0  0  0  0  0  0  0  0  0  0  0
   -0.6949    0.7260   -0.0000 C   0  0  0  0  0  0  0  0  0  0  0  0
   -1.2493   -0.6186    0.0000 C   0  0  0  0  0  0  0  0  0  0  0  0
    1.4317   -0.1561    0.0000 C   0  0  0  0  0  0  0  0  0  0  0  0
    0.8856   -1.4914    0.0000 C   0  0  0  0  0  0  0  0  0  0  0  0
   -1.5954    1.8370   -0.0000 C   0  0  0  0  0  0  0  0  0  0  0  0
   -2.6732   -0.7772   -0.0000 C   0  0  0  0  0  0  0  0  0  0  0  0
    2.8554   -0.0109    0.0000 C   0  0  0  0  0  0  0  0  0  0  0  0
    1.7595   -2.6036    0.0000 C   0  0  0  0  0  0  0  0  0  0  0  0
   -2.9910    1.6323   -0.0000 C   0  0  0  0  0  0  0  0  0  0  0  0
   -3.5209    0.3483   -0.0000 C   0  0  0  0  0  0  0  0  0  0  0  0
    3.6883   -1.1391    0.0000 C   0  0  0  0  0  0  0  0  0  0  0  0
    3.1385   -2.4289    0.0000 C   0  0  0  0  0  0  0  0  0  0  0  0
    1.3099   -3.5921    0.0000 H   0  0  0  0  0  0  0  0  0  0  0  0
   -4.5960    0.2016   -0.0000 H   0  0  0  0  0  0  0  0  0  0  0  0
    4.7646   -0.9996    0.0000 H   0  0  0  0  0  0  0  0  0  0  0  0
   -3.6499    2.4941   -0.0000 H   0  0  0  0  0  0  0  0  0  0  0  0
   -1.0995    3.1757   -0.0000 C   0  0  0  0  0  0  0  0  0  0  0  0
   -0.7817    4.2987   -0.0000 N   0  0  0  0  0  0  0  0  0  0  0  0
    3.7976   -3.2925    0.0000 H   0  0  0  0  0  0  0  0  0  0  0  0
   -3.2479   -2.0831   -0.0000 C   0  0  0  0  0  0  0  0  0  0  0  0
   -3.7827   -3.1211    0.0000 N   0  0  0  0  0  0  0  0  0  0  0  0
    3.4579    1.2873   -0.0000 C   0  0  0  0  0  0  0  0  0  0  0  0
    4.0301    2.3034   -0.0000 N   0  0  0  0  0  0  0  0  0  0  0  0
  1  3  2  0  0  0  0
  1  5  1  0  0  0  0
  3  4  1  0  0  0  0
  4  2  2  0  0  0  0
  5  6  1  0  0  0  0
  6  2  1  0  0  0  0
  6 10  2  0  0  0  0
  7  3  1  0  0  0  0
  8 22  1  0  0  0  0
  8  4  1  0  0  0  0
  9  5  2  0  0  0  0
  9 13  1  0  0  0  0
 10 15  1  0  0  0  0
 11  7  2  0  0  0  0
 12 11  1  0  0  0  0
 12  8  2  0  0  0  0
 13 17  1  0  0  0  0
 13 14  2  0  0  0  0
 14 10  1  0  0  0  0
 14 21  1  0  0  0  0
 16 12  1  0  0  0  0
 18 11  1  0  0  0  0
 19 20  3  0  0  0  0
 19  7  1  0  0  0  0
 23 22  3  0  0  0  0
 24  9  1  0  0  0  0
 25 24  3  0  0  0  0
M  END
