CN_R137_anion
 OpenBabel02182105543D

 25 27  0  0  0  0  0  0  0  0999 V2000
    1.5058   -0.9366    0.0000 N   0  0  0  0  0  0  0  0  0  0  0  0
   -1.1062    0.2493    0.0000 N   0  0  0  0  0  0  0  0  0  0  0  0
    1.3312    0.4122    0.0000 C   0  0  0  0  0  0  0  0  0  0  0  0
    0.0000    0.9972    0.0000 C   0  0  0  0  0  0  0  0  0  0  0  0
    0.3884   -1.6933    0.0000 C   0  0  0  0  0  0  0  0  0  0  0  0
   -0.9313   -1.1060    0.0000 C   0  0  0  0  0  0  0  0  0  0  0  0
    2.4602    1.2515    0.0000 C   0  0  0  0  0  0  0  0  0  0  0  0
   -0.1009    2.4350    0.0000 C   0  0  0  0  0  0  0  0  0  0  0  0
    0.5014   -3.1131    0.0000 C   0  0  0  0  0  0  0  0  0  0  0  0
   -2.0606   -1.9469    0.0000 C   0  0  0  0  0  0  0  0  0  0  0  0
    2.3233    2.6532    0.0000 C   0  0  0  0  0  0  0  0  0  0  0  0
    1.0417    3.2376    0.0000 C   0  0  0  0  0  0  0  0  0  0  0  0
   -0.6174   -3.9199    0.0000 C   0  0  0  0  0  0  0  0  0  0  0  0
   -1.9160   -3.3410    0.0000 C   0  0  0  0  0  0  0  0  0  0  0  0
   -3.0427   -1.4859    0.0000 H   0  0  0  0  0  0  0  0  0  0  0  0
   -0.5183   -5.0010    0.0000 H   0  0  0  0  0  0  0  0  0  0  0  0
   -1.3857    3.0613    0.0000 C   0  0  0  0  0  0  0  0  0  0  0  0
   -2.4049    3.6289    0.0000 N   0  0  0  0  0  0  0  0  0  0  0  0
    1.5011   -3.5367    0.0000 H   0  0  0  0  0  0  0  0  0  0  0  0
    3.4412    0.7886    0.0000 H   0  0  0  0  0  0  0  0  0  0  0  0
    3.4806    3.4914    0.0000 C   0  0  0  0  0  0  0  0  0  0  0  0
    4.4259    4.1767    0.0000 N   0  0  0  0  0  0  0  0  0  0  0  0
    0.9393    4.3171    0.0000 H   0  0  0  0  0  0  0  0  0  0  0  0
   -3.0654   -4.1902    0.0000 C   0  0  0  0  0  0  0  0  0  0  0  0
   -3.9944   -4.8977    0.0000 N   0  0  0  0  0  0  0  0  0  0  0  0
  1  5  2  0  0  0  0
  1  3  1  0  0  0  0
  4  3  1  0  0  0  0
  4  2  1  0  0  0  0
  6  5  1  0  0  0  0
  6  2  2  0  0  0  0
  7  3  2  0  0  0  0
  8  4  2  0  0  0  0
  9  5  1  0  0  0  0
 10  6  1  0  0  0  0
 11  7  1  0  0  0  0
 12 11  2  0  0  0  0
 12  8  1  0  0  0  0
 13 16  1  0  0  0  0
 13 14  1  0  0  0  0
 13  9  2  0  0  0  0
 14 10  2  0  0  0  0
 15 10  1  0  0  0  0
 17  8  1  0  0  0  0
 18 17  3  0  0  0  0
 19  9  1  0  0  0  0
 20  7  1  0  0  0  0
 21 11  1  0  0  0  0
 22 21  3  0  0  0  0
 23 12  1  0  0  0  0
 24 14  1  0  0  0  0
 25 24  3  0  0  0  0
M  END
