CN_R1249_anion
 OpenBabel02182105543D

 26 28  0  0  0  0  0  0  0  0999 V2000
   -0.5189    1.9024    0.0000 N   0  0  0  0  0  0  0  0  0  0  0  0
   -0.7438   -0.9371   -0.0000 N   0  0  0  0  0  0  0  0  0  0  0  0
    0.5622    1.1217    0.0000 C   0  0  0  0  0  0  0  0  0  0  0  0
    0.4564   -0.3297   -0.0000 C   0  0  0  0  0  0  0  0  0  0  0  0
   -1.7344    1.2894    0.0000 C   0  0  0  0  0  0  0  0  0  0  0  0
   -1.8389   -0.1466    0.0000 C   0  0  0  0  0  0  0  0  0  0  0  0
    1.8719    1.7160    0.0000 C   0  0  0  0  0  0  0  0  0  0  0  0
    1.6478   -1.1180   -0.0000 C   0  0  0  0  0  0  0  0  0  0  0  0
   -2.9060    2.0794    0.0000 C   0  0  0  0  0  0  0  0  0  0  0  0
   -3.1477   -0.7267    0.0000 C   0  0  0  0  0  0  0  0  0  0  0  0
    3.0172    0.9158   -0.0000 C   0  0  0  0  0  0  0  0  0  0  0  0
    2.9247   -0.4832   -0.0000 C   0  0  0  0  0  0  0  0  0  0  0  0
   -4.1619    1.4870    0.0000 C   0  0  0  0  0  0  0  0  0  0  0  0
   -4.2851    0.0885    0.0000 C   0  0  0  0  0  0  0  0  0  0  0  0
    1.5543   -2.5394   -0.0000 C   0  0  0  0  0  0  0  0  0  0  0  0
    1.5266   -3.7054   -0.0000 N   0  0  0  0  0  0  0  0  0  0  0  0
   -5.2659   -0.3760    0.0000 H   0  0  0  0  0  0  0  0  0  0  0  0
    4.1361   -1.2397   -0.0000 C   0  0  0  0  0  0  0  0  0  0  0  0
    5.1515   -1.8140   -0.0000 N   0  0  0  0  0  0  0  0  0  0  0  0
   -5.0560    2.1035    0.0000 H   0  0  0  0  0  0  0  0  0  0  0  0
   -2.7834    3.1582    0.0000 H   0  0  0  0  0  0  0  0  0  0  0  0
    2.0121    3.1366    0.0000 C   0  0  0  0  0  0  0  0  0  0  0  0
    2.1841    4.2906    0.0000 N   0  0  0  0  0  0  0  0  0  0  0  0
    3.9959    1.3821   -0.0000 H   0  0  0  0  0  0  0  0  0  0  0  0
   -3.3185   -2.1484    0.0000 C   0  0  0  0  0  0  0  0  0  0  0  0
   -3.5467   -3.2913   -0.0000 N   0  0  0  0  0  0  0  0  0  0  0  0
  2  6  1  0  0  0  0
  2  4  2  0  0  0  0
  3  1  2  0  0  0  0
  4  3  1  0  0  0  0
  5  1  1  0  0  0  0
  6 10  1  0  0  0  0
  6  5  2  0  0  0  0
  7  3  1  0  0  0  0
  8 15  1  0  0  0  0
  8 12  2  0  0  0  0
  8  4  1  0  0  0  0
  9  5  1  0  0  0  0
  9 21  1  0  0  0  0
 11 12  1  0  0  0  0
 11  7  2  0  0  0  0
 13 14  1  0  0  0  0
 13  9  2  0  0  0  0
 13 20  1  0  0  0  0
 14 10  2  0  0  0  0
 14 17  1  0  0  0  0
 16 15  3  0  0  0  0
 18 12  1  0  0  0  0
 19 18  3  0  0  0  0
 22  7  1  0  0  0  0
 22 23  3  0  0  0  0
 24 11  1  0  0  0  0
 25 10  1  0  0  0  0
 26 25  3  0  0  0  0
M  END
