CN_R123678_anion
 OpenBabel02182105543D

 28 30  0  0  0  0  0  0  0  0999 V2000
    1.4193   -0.1656    0.0000 N   0  0  0  0  0  0  0  0  0  0  0  0
   -1.4193    0.1656    0.0000 N   0  0  0  0  0  0  0  0  0  0  0  0
    0.8469    1.0606    0.0000 C   0  0  0  0  0  0  0  0  0  0  0  0
   -0.5894    1.2231    0.0000 C   0  0  0  0  0  0  0  0  0  0  0  0
    0.5894   -1.2231    0.0000 C   0  0  0  0  0  0  0  0  0  0  0  0
   -0.8469   -1.0606    0.0000 C   0  0  0  0  0  0  0  0  0  0  0  0
    1.6743    2.2038    0.0000 C   0  0  0  0  0  0  0  0  0  0  0  0
   -1.1309    2.5482    0.0000 C   0  0  0  0  0  0  0  0  0  0  0  0
    1.1309   -2.5482    0.0000 C   0  0  0  0  0  0  0  0  0  0  0  0
   -1.6743   -2.2038    0.0000 C   0  0  0  0  0  0  0  0  0  0  0  0
    1.1309    3.4888    0.0000 C   0  0  0  0  0  0  0  0  0  0  0  0
   -0.2807    3.6748    0.0000 C   0  0  0  0  0  0  0  0  0  0  0  0
    0.2807   -3.6748    0.0000 C   0  0  0  0  0  0  0  0  0  0  0  0
   -1.1309   -3.4888    0.0000 C   0  0  0  0  0  0  0  0  0  0  0  0
    2.5499   -2.7142    0.0000 C   0  0  0  0  0  0  0  0  0  0  0  0
    3.7041   -2.8704    0.0000 N   0  0  0  0  0  0  0  0  0  0  0  0
   -0.8264    4.9952    0.0000 C   0  0  0  0  0  0  0  0  0  0  0  0
   -1.2609    6.0759    0.0000 N   0  0  0  0  0  0  0  0  0  0  0  0
    2.0137    4.6168    0.0000 C   0  0  0  0  0  0  0  0  0  0  0  0
    2.7600    5.5107    0.0000 N   0  0  0  0  0  0  0  0  0  0  0  0
   -2.5499    2.7142    0.0000 C   0  0  0  0  0  0  0  0  0  0  0  0
   -3.7041    2.8704    0.0000 N   0  0  0  0  0  0  0  0  0  0  0  0
    2.7485    2.0578    0.0000 H   0  0  0  0  0  0  0  0  0  0  0  0
   -2.7485   -2.0578    0.0000 H   0  0  0  0  0  0  0  0  0  0  0  0
    0.8264   -4.9952    0.0000 C   0  0  0  0  0  0  0  0  0  0  0  0
   -2.0137   -4.6168    0.0000 C   0  0  0  0  0  0  0  0  0  0  0  0
   -2.7600   -5.5107    0.0000 N   0  0  0  0  0  0  0  0  0  0  0  0
    1.2609   -6.0759    0.0000 N   0  0  0  0  0  0  0  0  0  0  0  0
  1  5  2  0  0  0  0
  1  3  1  0  0  0  0
  4  3  1  0  0  0  0
  4  2  1  0  0  0  0
  6  5  1  0  0  0  0
  6  2  2  0  0  0  0
  7  3  2  0  0  0  0
  8  4  2  0  0  0  0
  9  5  1  0  0  0  0
 10  6  1  0  0  0  0
 11  7  1  0  0  0  0
 12 11  2  0  0  0  0
 12  8  1  0  0  0  0
 13  9  2  0  0  0  0
 14 13  1  0  0  0  0
 14 10  2  0  0  0  0
 15 16  3  0  0  0  0
 15  9  1  0  0  0  0
 17 12  1  0  0  0  0
 18 17  3  0  0  0  0
 19 11  1  0  0  0  0
 20 19  3  0  0  0  0
 21  8  1  0  0  0  0
 22 21  3  0  0  0  0
 23  7  1  0  0  0  0
 24 10  1  0  0  0  0
 25 13  1  0  0  0  0
 26 14  1  0  0  0  0
 27 26  3  0  0  0  0
 28 25  3  0  0  0  0
M  END
