CN_R1247_anion
 OpenBabel02252114183D

 26 28  0  0  0  0  0  0  0  0999 V2000
    0.7235    1.2932   -0.0000 N   0  0  0  0  0  0  0  0  0  0  0  0
    0.0926   -1.4893    0.0000 N   0  0  0  0  0  0  0  0  0  0  0  0
   -0.5394    0.8673   -0.0000 C   0  0  0  0  0  0  0  0  0  0  0  0
   -0.8708   -0.5513    0.0000 C   0  0  0  0  0  0  0  0  0  0  0  0
    1.7003    0.3420   -0.0000 C   0  0  0  0  0  0  0  0  0  0  0  0
    1.3751   -1.0596    0.0000 C   0  0  0  0  0  0  0  0  0  0  0  0
   -1.6173    1.8210   -0.0000 C   0  0  0  0  0  0  0  0  0  0  0  0
   -2.2415   -0.9519    0.0000 C   0  0  0  0  0  0  0  0  0  0  0  0
    3.0536    0.7390   -0.0000 C   0  0  0  0  0  0  0  0  0  0  0  0
    2.4321   -2.0107    0.0000 C   0  0  0  0  0  0  0  0  0  0  0  0
   -2.9477    1.3945   -0.0000 C   0  0  0  0  0  0  0  0  0  0  0  0
   -3.2749    0.0308    0.0000 C   0  0  0  0  0  0  0  0  0  0  0  0
    4.0711   -0.2184   -0.0000 C   0  0  0  0  0  0  0  0  0  0  0  0
    3.7496   -1.6052    0.0000 C   0  0  0  0  0  0  0  0  0  0  0  0
   -2.5608   -2.3400    0.0000 C   0  0  0  0  0  0  0  0  0  0  0  0
   -2.8521   -3.4697    0.0000 N   0  0  0  0  0  0  0  0  0  0  0  0
    2.1634   -3.0624    0.0000 H   0  0  0  0  0  0  0  0  0  0  0  0
    4.5526   -2.3353    0.0000 H   0  0  0  0  0  0  0  0  0  0  0  0
   -4.6545   -0.3360    0.0000 C   0  0  0  0  0  0  0  0  0  0  0  0
   -5.7926   -0.5929    0.0000 N   0  0  0  0  0  0  0  0  0  0  0  0
    3.2788    1.8001   -0.0000 H   0  0  0  0  0  0  0  0  0  0  0  0
   -1.3344    3.2203   -0.0000 C   0  0  0  0  0  0  0  0  0  0  0  0
   -1.1617    4.3740   -0.0000 N   0  0  0  0  0  0  0  0  0  0  0  0
   -3.7444    2.1297   -0.0000 H   0  0  0  0  0  0  0  0  0  0  0  0
    5.4441    0.1856   -0.0000 C   0  0  0  0  0  0  0  0  0  0  0  0
    6.5677    0.4993   -0.0000 N   0  0  0  0  0  0  0  0  0  0  0  0
  1  5  2  0  0  0  0
  1  3  1  0  0  0  0
  4  3  1  0  0  0  0
  4  2  1  0  0  0  0
  6  5  1  0  0  0  0
  6  2  2  0  0  0  0
  6 10  1  0  0  0  0
  7 11  1  0  0  0  0
  7  3  2  0  0  0  0
  8  4  2  0  0  0  0
  8 15  1  0  0  0  0
  9  5  1  0  0  0  0
 10 17  1  0  0  0  0
 12 11  2  0  0  0  0
 12  8  1  0  0  0  0
 13  9  2  0  0  0  0
 14 13  1  0  0  0  0
 14 10  2  0  0  0  0
 14 18  1  0  0  0  0
 15 16  3  0  0  0  0
 19 12  1  0  0  0  0
 19 20  3  0  0  0  0
 21  9  1  0  0  0  0
 22  7  1  0  0  0  0
 23 22  3  0  0  0  0
 24 11  1  0  0  0  0
 25 13  1  0  0  0  0
 26 25  3  0  0  0  0
M  END
