CN_R12346789_anion
 OpenBabel03162120083D

 30 32  0  0  0  0  0  0  0  0999 V2000
    0.0000    1.4196    0.0001 N   0  0  0  0  0  0  0  0  0  0  0  0
    0.0000   -1.4196   -0.0001 N   0  0  0  0  0  0  0  0  0  0  0  0
    1.1488    0.7219   -0.0000 C   0  0  0  0  0  0  0  0  0  0  0  0
    1.1488   -0.7219   -0.0001 C   0  0  0  0  0  0  0  0  0  0  0  0
   -1.1488   -0.7219    0.0000 C   0  0  0  0  0  0  0  0  0  0  0  0
   -1.1488    0.7219    0.0001 C   0  0  0  0  0  0  0  0  0  0  0  0
    2.3937   -1.4213   -0.0001 C   0  0  0  0  0  0  0  0  0  0  0  0
    2.3937    1.4213   -0.0000 C   0  0  0  0  0  0  0  0  0  0  0  0
   -2.3937   -1.4213    0.0000 C   0  0  0  0  0  0  0  0  0  0  0  0
   -2.3937    1.4213    0.0001 C   0  0  0  0  0  0  0  0  0  0  0  0
    3.6113    0.7094   -0.0001 C   0  0  0  0  0  0  0  0  0  0  0  0
    3.6113   -0.7094   -0.0001 C   0  0  0  0  0  0  0  0  0  0  0  0
   -3.6113    0.7094    0.0001 C   0  0  0  0  0  0  0  0  0  0  0  0
   -3.6113   -0.7094    0.0001 C   0  0  0  0  0  0  0  0  0  0  0  0
   -2.3955   -2.8495   -0.0000 C   0  0  0  0  0  0  0  0  0  0  0  0
   -2.4325   -4.0129   -0.0001 N   0  0  0  0  0  0  0  0  0  0  0  0
   -4.8557   -1.4146    0.0001 C   0  0  0  0  0  0  0  0  0  0  0  0
   -5.8705   -1.9844    0.0001 N   0  0  0  0  0  0  0  0  0  0  0  0
   -4.8557    1.4146    0.0002 C   0  0  0  0  0  0  0  0  0  0  0  0
   -5.8705    1.9844    0.0002 N   0  0  0  0  0  0  0  0  0  0  0  0
   -2.3955    2.8495    0.0002 C   0  0  0  0  0  0  0  0  0  0  0  0
   -2.4325    4.0129    0.0002 N   0  0  0  0  0  0  0  0  0  0  0  0
    2.3955    2.8495    0.0000 C   0  0  0  0  0  0  0  0  0  0  0  0
    2.4325    4.0129    0.0001 N   0  0  0  0  0  0  0  0  0  0  0  0
    4.8557    1.4146   -0.0001 C   0  0  0  0  0  0  0  0  0  0  0  0
    5.8705    1.9844   -0.0001 N   0  0  0  0  0  0  0  0  0  0  0  0
    4.8557   -1.4146   -0.0002 C   0  0  0  0  0  0  0  0  0  0  0  0
    5.8705   -1.9844   -0.0002 N   0  0  0  0  0  0  0  0  0  0  0  0
    2.3955   -2.8495   -0.0002 C   0  0  0  0  0  0  0  0  0  0  0  0
    2.4325   -4.0129   -0.0002 N   0  0  0  0  0  0  0  0  0  0  0  0
  1  6  1  0  0  0  0
  2  5  1  0  0  0  0
  3  1  2  0  0  0  0
  4  2  2  0  0  0  0
  4  3  1  0  0  0  0
  5  9  2  0  0  0  0
  5  6  1  0  0  0  0
  6 10  2  0  0  0  0
  7  4  1  0  0  0  0
  8  3  1  0  0  0  0
  8 23  1  0  0  0  0
  9 14  1  0  0  0  0
 10 13  1  0  0  0  0
 10 21  1  0  0  0  0
 11  8  2  0  0  0  0
 12  7  2  0  0  0  0
 12 11  1  0  0  0  0
 13 19  1  0  0  0  0
 14 13  2  0  0  0  0
 15  9  1  0  0  0  0
 16 15  3  0  0  0  0
 17 14  1  0  0  0  0
 17 18  3  0  0  0  0
 19 20  3  0  0  0  0
 21 22  3  0  0  0  0
 23 24  3  0  0  0  0
 25 11  1  0  0  0  0
 26 25  3  0  0  0  0
 27 12  1  0  0  0  0
 28 27  3  0  0  0  0
 29  7  1  0  0  0  0
 30 29  3  0  0  0  0
M  END
