CN_R16_anion
 OpenBabel02252114183D

 24 26  0  0  0  0  0  0  0  0999 V2000
   -0.6599    1.2705    0.0000 N   0  0  0  0  0  0  0  0  0  0  0  0
    0.6599   -1.2705    0.0000 N   0  0  0  0  0  0  0  0  0  0  0  0
   -1.3556    0.1179    0.0000 C   0  0  0  0  0  0  0  0  0  0  0  0
   -0.6960   -1.1720    0.0000 C   0  0  0  0  0  0  0  0  0  0  0  0
    0.6960    1.1720    0.0000 C   0  0  0  0  0  0  0  0  0  0  0  0
    1.3556   -0.1179    0.0000 C   0  0  0  0  0  0  0  0  0  0  0  0
   -2.7895    0.1396    0.0000 C   0  0  0  0  0  0  0  0  0  0  0  0
   -1.4775   -2.3496    0.0000 C   0  0  0  0  0  0  0  0  0  0  0  0
    1.4775    2.3496    0.0000 C   0  0  0  0  0  0  0  0  0  0  0  0
    2.7895   -0.1396    0.0000 C   0  0  0  0  0  0  0  0  0  0  0  0
   -3.5279   -1.0572    0.0000 C   0  0  0  0  0  0  0  0  0  0  0  0
   -2.8707   -2.2924    0.0000 C   0  0  0  0  0  0  0  0  0  0  0  0
    2.8707    2.2924    0.0000 C   0  0  0  0  0  0  0  0  0  0  0  0
    3.5279    1.0572    0.0000 C   0  0  0  0  0  0  0  0  0  0  0  0
   -0.9488   -3.2984    0.0000 H   0  0  0  0  0  0  0  0  0  0  0  0
    0.9488    3.2984    0.0000 H   0  0  0  0  0  0  0  0  0  0  0  0
   -3.4523   -3.2103    0.0000 H   0  0  0  0  0  0  0  0  0  0  0  0
    3.4523    3.2103    0.0000 H   0  0  0  0  0  0  0  0  0  0  0  0
   -4.6124   -1.0081    0.0000 H   0  0  0  0  0  0  0  0  0  0  0  0
   -3.4896    1.3851    0.0000 C   0  0  0  0  0  0  0  0  0  0  0  0
   -4.1246    2.3650   -0.0000 N   0  0  0  0  0  0  0  0  0  0  0  0
    4.6124    1.0081    0.0000 H   0  0  0  0  0  0  0  0  0  0  0  0
    3.4896   -1.3851    0.0000 C   0  0  0  0  0  0  0  0  0  0  0  0
    4.1246   -2.3650   -0.0000 N   0  0  0  0  0  0  0  0  0  0  0  0
  1  5  2  0  0  0  0
  1  3  1  0  0  0  0
  4  3  1  0  0  0  0
  4  2  1  0  0  0  0
  6  5  1  0  0  0  0
  6  2  2  0  0  0  0
  7  3  2  0  0  0  0
  8  4  2  0  0  0  0
  9  5  1  0  0  0  0
 10  6  1  0  0  0  0
 11  7  1  0  0  0  0
 12 11  2  0  0  0  0
 12  8  1  0  0  0  0
 13 18  1  0  0  0  0
 13 14  1  0  0  0  0
 13  9  2  0  0  0  0
 14 10  2  0  0  0  0
 15  8  1  0  0  0  0
 16  9  1  0  0  0  0
 17 12  1  0  0  0  0
 19 11  1  0  0  0  0
 20  7  1  0  0  0  0
 21 20  3  0  0  0  0
 22 14  1  0  0  0  0
 23 10  1  0  0  0  0
 24 23  3  0  0  0  0
M  END
