CN_R17_anion
 OpenBabel03162120083D

 24 26  0  0  0  0  0  0  0  0999 V2000
    0.6415    1.1138    0.0000 N   0  0  0  0  0  0  0  0  0  0  0  0
   -0.1760   -1.6382   -0.0000 N   0  0  0  0  0  0  0  0  0  0  0  0
    1.5418    0.1067    0.0000 C   0  0  0  0  0  0  0  0  0  0  0  0
    1.1326   -1.2851    0.0000 C   0  0  0  0  0  0  0  0  0  0  0  0
   -0.6644    0.7622    0.0000 C   0  0  0  0  0  0  0  0  0  0  0  0
   -1.0816   -0.6229   -0.0000 C   0  0  0  0  0  0  0  0  0  0  0  0
    2.9425    0.3968    0.0000 C   0  0  0  0  0  0  0  0  0  0  0  0
    2.1270   -2.2943    0.0000 C   0  0  0  0  0  0  0  0  0  0  0  0
   -1.6620    1.7757   -0.0000 C   0  0  0  0  0  0  0  0  0  0  0  0
   -2.4615   -0.9207   -0.0000 C   0  0  0  0  0  0  0  0  0  0  0  0
    3.8966   -0.6389    0.0000 C   0  0  0  0  0  0  0  0  0  0  0  0
    3.4836   -1.9751    0.0000 C   0  0  0  0  0  0  0  0  0  0  0  0
   -3.0077    1.4615   -0.0000 C   0  0  0  0  0  0  0  0  0  0  0  0
   -3.4213    0.1028   -0.0000 C   0  0  0  0  0  0  0  0  0  0  0  0
    1.7887   -3.3266   -0.0000 H   0  0  0  0  0  0  0  0  0  0  0  0
   -1.3254    2.8081    0.0000 H   0  0  0  0  0  0  0  0  0  0  0  0
   -2.7596   -1.9642   -0.0000 H   0  0  0  0  0  0  0  0  0  0  0  0
    4.2277   -2.7673    0.0000 H   0  0  0  0  0  0  0  0  0  0  0  0
   -3.7578    2.2464   -0.0000 H   0  0  0  0  0  0  0  0  0  0  0  0
    4.9520   -0.3852    0.0000 H   0  0  0  0  0  0  0  0  0  0  0  0
    3.3959    1.7521    0.0000 C   0  0  0  0  0  0  0  0  0  0  0  0
   -4.8145   -0.2123   -0.0000 C   0  0  0  0  0  0  0  0  0  0  0  0
   -5.9566   -0.4597   -0.0000 N   0  0  0  0  0  0  0  0  0  0  0  0
    3.8386    2.8325    0.0000 N   0  0  0  0  0  0  0  0  0  0  0  0
  2  6  2  0  0  0  0
  2  4  1  0  0  0  0
  3  1  1  0  0  0  0
  3  7  1  0  0  0  0
  4  3  2  0  0  0  0
  5  1  2  0  0  0  0
  6  5  1  0  0  0  0
  7 21  1  0  0  0  0
  8  4  1  0  0  0  0
  9  5  1  0  0  0  0
 10  6  1  0  0  0  0
 11  7  2  0  0  0  0
 11 20  1  0  0  0  0
 12  8  2  0  0  0  0
 12 11  1  0  0  0  0
 13  9  2  0  0  0  0
 14 10  2  0  0  0  0
 14 13  1  0  0  0  0
 15  8  1  0  0  0  0
 16  9  1  0  0  0  0
 17 10  1  0  0  0  0
 18 12  1  0  0  0  0
 19 13  1  0  0  0  0
 21 24  3  0  0  0  0
 22 14  1  0  0  0  0
 23 22  3  0  0  0  0
M  END
