CN_R123_anion
 OpenBabel02222114233D

 25 27  0  0  0  0  0  0  0  0999 V2000
   -1.3223   -1.6756    0.0000 N   0  0  0  0  0  0  0  0  0  0  0  0
   -1.1644    1.1833   -0.0000 N   0  0  0  0  0  0  0  0  0  0  0  0
   -0.1426   -1.0317    0.0000 C   0  0  0  0  0  0  0  0  0  0  0  0
   -0.0664    0.4219   -0.0000 C   0  0  0  0  0  0  0  0  0  0  0  0
   -2.4450   -0.9015    0.0000 C   0  0  0  0  0  0  0  0  0  0  0  0
   -2.3657    0.5346   -0.0000 C   0  0  0  0  0  0  0  0  0  0  0  0
    1.0585   -1.7841    0.0000 C   0  0  0  0  0  0  0  0  0  0  0  0
    1.2326    1.0398   -0.0000 C   0  0  0  0  0  0  0  0  0  0  0  0
   -3.7210   -1.5172    0.0000 C   0  0  0  0  0  0  0  0  0  0  0  0
   -3.5639    1.2883   -0.0000 C   0  0  0  0  0  0  0  0  0  0  0  0
    2.3108   -1.1629    0.0000 C   0  0  0  0  0  0  0  0  0  0  0  0
    2.4154    0.2551    0.0000 C   0  0  0  0  0  0  0  0  0  0  0  0
   -4.8784   -0.7528   -0.0000 C   0  0  0  0  0  0  0  0  0  0  0  0
   -4.7995    0.6573   -0.0000 C   0  0  0  0  0  0  0  0  0  0  0  0
   -3.4763    2.3709   -0.0000 H   0  0  0  0  0  0  0  0  0  0  0  0
   -5.8501   -1.2403    0.0000 H   0  0  0  0  0  0  0  0  0  0  0  0
   -5.7106    1.2502   -0.0000 H   0  0  0  0  0  0  0  0  0  0  0  0
    1.3161    2.4623   -0.0000 C   0  0  0  0  0  0  0  0  0  0  0  0
    1.4053    3.6257   -0.0000 N   0  0  0  0  0  0  0  0  0  0  0  0
   -3.7562   -2.6030    0.0000 H   0  0  0  0  0  0  0  0  0  0  0  0
    3.6999    0.8743    0.0000 C   0  0  0  0  0  0  0  0  0  0  0  0
    4.7564    1.3690    0.0000 N   0  0  0  0  0  0  0  0  0  0  0  0
    0.9822   -2.8656    0.0000 H   0  0  0  0  0  0  0  0  0  0  0  0
    3.4837   -1.9836    0.0000 C   0  0  0  0  0  0  0  0  0  0  0  0
    4.4115   -2.6896    0.0000 N   0  0  0  0  0  0  0  0  0  0  0  0
  2  6  2  0  0  0  0
  2  4  1  0  0  0  0
  3  1  1  0  0  0  0
  3  7  1  0  0  0  0
  4  3  2  0  0  0  0
  5  1  2  0  0  0  0
  6  5  1  0  0  0  0
  7 23  1  0  0  0  0
  8  4  1  0  0  0  0
  9  5  1  0  0  0  0
  9 20  1  0  0  0  0
 10 14  2  0  0  0  0
 10  6  1  0  0  0  0
 11  7  2  0  0  0  0
 11 24  1  0  0  0  0
 12  8  2  0  0  0  0
 12 11  1  0  0  0  0
 13 16  1  0  0  0  0
 13  9  2  0  0  0  0
 14 13  1  0  0  0  0
 15 10  1  0  0  0  0
 17 14  1  0  0  0  0
 18  8  1  0  0  0  0
 19 18  3  0  0  0  0
 21 12  1  0  0  0  0
 22 21  3  0  0  0  0
 24 25  3  0  0  0  0
M  END
