CN_R1238_anion
 OpenBabel02252114183D

 26 28  0  0  0  0  0  0  0  0999 V2000
   -1.1978   -0.0317    0.0000 N   0  0  0  0  0  0  0  0  0  0  0  0
    1.2307   -1.5517    0.0000 N   0  0  0  0  0  0  0  0  0  0  0  0
    0.0000    0.5624    0.0000 C   0  0  0  0  0  0  0  0  0  0  0  0
    1.2355   -0.2020    0.0000 C   0  0  0  0  0  0  0  0  0  0  0  0
   -1.2063   -1.3963    0.0000 C   0  0  0  0  0  0  0  0  0  0  0  0
    0.0183   -2.1567    0.0000 C   0  0  0  0  0  0  0  0  0  0  0  0
    0.0840    1.9974    0.0000 C   0  0  0  0  0  0  0  0  0  0  0  0
    2.4711    0.4831    0.0000 C   0  0  0  0  0  0  0  0  0  0  0  0
   -2.4405   -2.0775    0.0000 C   0  0  0  0  0  0  0  0  0  0  0  0
   -0.0560   -3.5754    0.0000 C   0  0  0  0  0  0  0  0  0  0  0  0
    1.3384    2.6527    0.0000 C   0  0  0  0  0  0  0  0  0  0  0  0
    2.5318    1.8799    0.0000 C   0  0  0  0  0  0  0  0  0  0  0  0
   -2.4813   -3.4760    0.0000 C   0  0  0  0  0  0  0  0  0  0  0  0
   -1.2736   -4.2254    0.0000 C   0  0  0  0  0  0  0  0  0  0  0  0
    0.8779   -4.1289    0.0000 H   0  0  0  0  0  0  0  0  0  0  0  0
   -1.3213   -5.3097    0.0000 H   0  0  0  0  0  0  0  0  0  0  0  0
    3.8149    2.5143    0.0000 C   0  0  0  0  0  0  0  0  0  0  0  0
    4.8788    2.9901    0.0000 N   0  0  0  0  0  0  0  0  0  0  0  0
   -3.3517   -1.4888    0.0000 H   0  0  0  0  0  0  0  0  0  0  0  0
   -1.1235    2.7567    0.0000 C   0  0  0  0  0  0  0  0  0  0  0  0
   -2.0987    3.3958    0.0000 N   0  0  0  0  0  0  0  0  0  0  0  0
    1.4144    4.0784    0.0000 C   0  0  0  0  0  0  0  0  0  0  0  0
    1.4894    5.2416    0.0000 N   0  0  0  0  0  0  0  0  0  0  0  0
    3.3814   -0.1057    0.0000 H   0  0  0  0  0  0  0  0  0  0  0  0
   -3.7358   -4.1642    0.0000 C   0  0  0  0  0  0  0  0  0  0  0  0
   -4.7503   -4.7405    0.0000 N   0  0  0  0  0  0  0  0  0  0  0  0
  1  5  2  0  0  0  0
  1  3  1  0  0  0  0
  4  3  1  0  0  0  0
  4  2  1  0  0  0  0
  6  5  1  0  0  0  0
  6  2  2  0  0  0  0
  7  3  2  0  0  0  0
  8  4  2  0  0  0  0
  9  5  1  0  0  0  0
 10  6  1  0  0  0  0
 11  7  1  0  0  0  0
 12 11  2  0  0  0  0
 12  8  1  0  0  0  0
 13  9  2  0  0  0  0
 14 16  1  0  0  0  0
 14 13  1  0  0  0  0
 14 10  2  0  0  0  0
 15 10  1  0  0  0  0
 17 12  1  0  0  0  0
 18 17  3  0  0  0  0
 19  9  1  0  0  0  0
 20  7  1  0  0  0  0
 21 20  3  0  0  0  0
 22 11  1  0  0  0  0
 23 22  3  0  0  0  0
 24  8  1  0  0  0  0
 25 13  1  0  0  0  0
 26 25  3  0  0  0  0
M  END
