CN_R1478_anion
 OpenBabel02212111253D

 26 28  0  0  0  0  0  0  0  0999 V2000
    0.4926   -1.4304   -0.0000 N   0  0  0  0  0  0  0  0  0  0  0  0
    0.4926    1.4304    0.0000 N   0  0  0  0  0  0  0  0  0  0  0  0
   -0.6604   -0.7207   -0.0000 C   0  0  0  0  0  0  0  0  0  0  0  0
   -0.6604    0.7207    0.0000 C   0  0  0  0  0  0  0  0  0  0  0  0
    1.6410   -0.7267   -0.0000 C   0  0  0  0  0  0  0  0  0  0  0  0
    1.6410    0.7267    0.0000 C   0  0  0  0  0  0  0  0  0  0  0  0
   -1.8983   -1.4066   -0.0000 C   0  0  0  0  0  0  0  0  0  0  0  0
   -1.8983    1.4066    0.0000 C   0  0  0  0  0  0  0  0  0  0  0  0
    2.8950   -1.4123   -0.0000 C   0  0  0  0  0  0  0  0  0  0  0  0
    2.8950    1.4123    0.0000 C   0  0  0  0  0  0  0  0  0  0  0  0
   -3.1087   -0.7161   -0.0000 C   0  0  0  0  0  0  0  0  0  0  0  0
   -3.1087    0.7161    0.0000 C   0  0  0  0  0  0  0  0  0  0  0  0
    4.1071   -0.6950   -0.0000 C   0  0  0  0  0  0  0  0  0  0  0  0
    4.1071    0.6950    0.0000 C   0  0  0  0  0  0  0  0  0  0  0  0
    5.0446   -1.2407   -0.0000 H   0  0  0  0  0  0  0  0  0  0  0  0
    5.0446    1.2407    0.0000 H   0  0  0  0  0  0  0  0  0  0  0  0
    2.9309   -2.8401   -0.0000 C   0  0  0  0  0  0  0  0  0  0  0  0
    3.0324   -4.0024   -0.0000 N   0  0  0  0  0  0  0  0  0  0  0  0
    2.9309    2.8401    0.0000 C   0  0  0  0  0  0  0  0  0  0  0  0
    3.0324    4.0024    0.0000 N   0  0  0  0  0  0  0  0  0  0  0  0
   -1.8810   -2.4910   -0.0000 H   0  0  0  0  0  0  0  0  0  0  0  0
   -1.8810    2.4910    0.0000 H   0  0  0  0  0  0  0  0  0  0  0  0
   -4.3364    1.4510    0.0000 C   0  0  0  0  0  0  0  0  0  0  0  0
   -5.3228    2.0721    0.0000 N   0  0  0  0  0  0  0  0  0  0  0  0
   -4.3364   -1.4510   -0.0000 C   0  0  0  0  0  0  0  0  0  0  0  0
   -5.3228   -2.0721   -0.0000 N   0  0  0  0  0  0  0  0  0  0  0  0
  1  5  2  0  0  0  0
  1  3  1  0  0  0  0
  4  3  1  0  0  0  0
  4  8  2  0  0  0  0
  4  2  1  0  0  0  0
  6  5  1  0  0  0  0
  6 10  1  0  0  0  0
  6  2  2  0  0  0  0
  7 11  1  0  0  0  0
  7  3  2  0  0  0  0
  8 22  1  0  0  0  0
  9 13  2  0  0  0  0
  9  5  1  0  0  0  0
 10 19  1  0  0  0  0
 11 12  2  0  0  0  0
 12  8  1  0  0  0  0
 12 23  1  0  0  0  0
 14 13  1  0  0  0  0
 14 10  2  0  0  0  0
 14 16  1  0  0  0  0
 15 13  1  0  0  0  0
 17  9  1  0  0  0  0
 18 17  3  0  0  0  0
 19 20  3  0  0  0  0
 21  7  1  0  0  0  0
 23 24  3  0  0  0  0
 25 11  1  0  0  0  0
 26 25  3  0  0  0  0
M  END
