CONH2_R1_anion
 OpenBabel02252114183D

 26 28  0  0  0  0  0  0  0  0999 V2000
   -1.1430    1.7993   -0.0000 N   0  0  0  0  0  0  0  0  0  0  0  0
   -0.1984   -0.8963   -0.0000 N   0  0  0  0  0  0  0  0  0  0  0  0
    0.1869    1.5098   -0.0000 C   0  0  0  0  0  0  0  0  0  0  0  0
    0.6789    0.1401    0.0000 C   0  0  0  0  0  0  0  0  0  0  0  0
    1.1127    2.5781   -0.0000 C   0  0  0  0  0  0  0  0  0  0  0  0
   -2.0038    0.7501   -0.0001 C   0  0  0  0  0  0  0  0  0  0  0  0
   -1.5317   -0.6117   -0.0001 C   0  0  0  0  0  0  0  0  0  0  0  0
    2.4854    2.3408   -0.0000 C   0  0  0  0  0  0  0  0  0  0  0  0
    2.1021   -0.0749    0.0000 C   0  0  0  0  0  0  0  0  0  0  0  0
    2.9684    1.0293    0.0000 C   0  0  0  0  0  0  0  0  0  0  0  0
   -3.4042    0.9834   -0.0001 C   0  0  0  0  0  0  0  0  0  0  0  0
   -2.4802   -1.6627   -0.0001 C   0  0  0  0  0  0  0  0  0  0  0  0
   -4.3112   -0.0700   -0.0001 C   0  0  0  0  0  0  0  0  0  0  0  0
   -3.8475   -1.4010   -0.0001 C   0  0  0  0  0  0  0  0  0  0  0  0
    4.0334    0.8235   -0.0000 H   0  0  0  0  0  0  0  0  0  0  0  0
   -3.7374    2.0181   -0.0001 H   0  0  0  0  0  0  0  0  0  0  0  0
   -2.1052   -2.6834   -0.0001 H   0  0  0  0  0  0  0  0  0  0  0  0
   -5.3799    0.1332   -0.0001 H   0  0  0  0  0  0  0  0  0  0  0  0
   -4.5571   -2.2253   -0.0001 H   0  0  0  0  0  0  0  0  0  0  0  0
    3.1831    3.1753   -0.0001 H   0  0  0  0  0  0  0  0  0  0  0  0
    0.7073    3.5865   -0.0001 H   0  0  0  0  0  0  0  0  0  0  0  0
    2.7636   -1.4206    0.0000 C   0  0  0  0  0  0  0  0  0  0  0  0
    4.0019   -1.5482    0.0002 O   0  0  0  0  0  0  0  0  0  0  0  0
    1.9435   -2.5064    0.0002 N   0  0  0  0  0  0  0  0  0  0  0  0
    0.9294   -2.3468    0.0001 H   0  0  0  0  0  0  0  0  0  0  0  0
    2.3795   -3.4155    0.0003 H   0  0  0  0  0  0  0  0  0  0  0  0
  1  3  1  0  0  0  0
  2  4  1  0  0  0  0
  3  4  1  0  0  0  0
  5  8  1  0  0  0  0
  5  3  2  0  0  0  0
  6  7  1  0  0  0  0
  6  1  2  0  0  0  0
  7  2  2  0  0  0  0
  8 10  2  0  0  0  0
  9  4  2  0  0  0  0
 10  9  1  0  0  0  0
 11  6  1  0  0  0  0
 12 17  1  0  0  0  0
 12  7  1  0  0  0  0
 13 14  1  0  0  0  0
 13 11  2  0  0  0  0
 14 12  2  0  0  0  0
 15 10  1  0  0  0  0
 16 11  1  0  0  0  0
 18 13  1  0  0  0  0
 19 14  1  0  0  0  0
 20  8  1  0  0  0  0
 21  5  1  0  0  0  0
 22  9  1  0  0  0  0
 22 23  2  0  0  0  0
 22 24  1  0  0  0  0
 24 26  1  0  0  0  0
 25 24  1  0  0  0  0
M  END
