COOH_R2_Anion
 OpenBabel02222114233D

 25 27  0  0  0  0  0  0  0  0999 V2000
    4.9690    0.4101   -0.0001 O   0  0  0  0  0  0  0  0  0  0  0  0
    4.2836   -1.7334   -0.0003 O   0  0  0  0  0  0  0  0  0  0  0  0
   -0.8457   -1.2834   -0.0001 N   0  0  0  0  0  0  0  0  0  0  0  0
   -1.2769    1.5627    0.0001 N   0  0  0  0  0  0  0  0  0  0  0  0
    0.1920   -0.3988   -0.0001 C   0  0  0  0  0  0  0  0  0  0  0  0
   -0.0412    1.0371    0.0001 C   0  0  0  0  0  0  0  0  0  0  0  0
   -2.0939   -0.7511    0.0000 C   0  0  0  0  0  0  0  0  0  0  0  0
   -2.3181    0.6764    0.0001 C   0  0  0  0  0  0  0  0  0  0  0  0
    1.5177   -0.8733   -0.0001 C   0  0  0  0  0  0  0  0  0  0  0  0
    1.0958    1.9036    0.0001 C   0  0  0  0  0  0  0  0  0  0  0  0
    2.6185    0.0053   -0.0001 C   0  0  0  0  0  0  0  0  0  0  0  0
    2.3817    1.4076   -0.0000 C   0  0  0  0  0  0  0  0  0  0  0  0
   -3.2249   -1.6120    0.0000 C   0  0  0  0  0  0  0  0  0  0  0  0
   -3.6474    1.1600    0.0002 C   0  0  0  0  0  0  0  0  0  0  0  0
   -4.5177   -1.1043    0.0001 C   0  0  0  0  0  0  0  0  0  0  0  0
   -4.7332    0.2895    0.0002 C   0  0  0  0  0  0  0  0  0  0  0  0
    3.9656   -0.5451   -0.0002 C   0  0  0  0  0  0  0  0  0  0  0  0
    1.6824   -1.9455   -0.0002 H   0  0  0  0  0  0  0  0  0  0  0  0
    0.9050    2.9734    0.0002 H   0  0  0  0  0  0  0  0  0  0  0  0
    3.2273    2.0874   -0.0000 H   0  0  0  0  0  0  0  0  0  0  0  0
   -3.0366   -2.6825   -0.0001 H   0  0  0  0  0  0  0  0  0  0  0  0
   -3.7870    2.2381    0.0003 H   0  0  0  0  0  0  0  0  0  0  0  0
   -5.3666   -1.7847    0.0001 H   0  0  0  0  0  0  0  0  0  0  0  0
   -5.7468    0.6841    0.0003 H   0  0  0  0  0  0  0  0  0  0  0  0
    5.7889   -0.1076   -0.0001 H   0  0  0  0  0  0  0  0  0  0  0  0
  2 17  2  0  0  0  0
  3  5  2  0  0  0  0
  3  7  1  0  0  0  0
  5  6  1  0  0  0  0
  6 10  1  0  0  0  0
  6  4  2  0  0  0  0
  7  8  1  0  0  0  0
  8  4  1  0  0  0  0
  8 14  2  0  0  0  0
  9 11  2  0  0  0  0
  9  5  1  0  0  0  0
 10 19  1  0  0  0  0
 11 12  1  0  0  0  0
 12 20  1  0  0  0  0
 12 10  2  0  0  0  0
 13  7  2  0  0  0  0
 13 15  1  0  0  0  0
 14 22  1  0  0  0  0
 15 16  2  0  0  0  0
 16 14  1  0  0  0  0
 16 24  1  0  0  0  0
 17 11  1  0  0  0  0
 17  1  1  0  0  0  0
 18  9  1  0  0  0  0
 21 13  1  0  0  0  0
 23 15  1  0  0  0  0
 25  1  1  0  0  0  0
M  END
