F_R1_Anion
 OpenBabel02212111253D

 22 24  0  0  0  0  0  0  0  0999 V2000
    2.5074    2.2662   -0.0000 F   0  0  0  0  0  0  0  0  0  0  0  0
   -0.0616    1.2476   -0.0000 N   0  0  0  0  0  0  0  0  0  0  0  0
   -0.3671   -1.6227    0.0000 N   0  0  0  0  0  0  0  0  0  0  0  0
    1.0033    0.4051   -0.0000 C   0  0  0  0  0  0  0  0  0  0  0  0
    0.8597   -1.0374   -0.0000 C   0  0  0  0  0  0  0  0  0  0  0  0
   -1.2873    0.6541    0.0000 C   0  0  0  0  0  0  0  0  0  0  0  0
   -1.4415   -0.7851    0.0000 C   0  0  0  0  0  0  0  0  0  0  0  0
    2.3274    0.9061   -0.0000 C   0  0  0  0  0  0  0  0  0  0  0  0
    2.0237   -1.8511   -0.0000 C   0  0  0  0  0  0  0  0  0  0  0  0
   -2.4541    1.4602    0.0000 C   0  0  0  0  0  0  0  0  0  0  0  0
   -2.7523   -1.3256    0.0000 C   0  0  0  0  0  0  0  0  0  0  0  0
    3.4585    0.1071   -0.0000 C   0  0  0  0  0  0  0  0  0  0  0  0
    3.2967   -1.2922   -0.0000 C   0  0  0  0  0  0  0  0  0  0  0  0
   -3.7273    0.8960    0.0000 C   0  0  0  0  0  0  0  0  0  0  0  0
   -3.8774   -0.5044    0.0000 C   0  0  0  0  0  0  0  0  0  0  0  0
    1.8784   -2.9279   -0.0000 H   0  0  0  0  0  0  0  0  0  0  0  0
   -2.3137    2.5383    0.0000 H   0  0  0  0  0  0  0  0  0  0  0  0
   -2.8442   -2.4091    0.0000 H   0  0  0  0  0  0  0  0  0  0  0  0
    4.4393    0.5723   -0.0000 H   0  0  0  0  0  0  0  0  0  0  0  0
    4.1752   -1.9330   -0.0000 H   0  0  0  0  0  0  0  0  0  0  0  0
   -4.6055    1.5384    0.0000 H   0  0  0  0  0  0  0  0  0  0  0  0
   -4.8718   -0.9461    0.0000 H   0  0  0  0  0  0  0  0  0  0  0  0
  1  8  1  0  0  0  0
  2  4  2  0  0  0  0
  2  6  1  0  0  0  0
  3  7  1  0  0  0  0
  5  4  1  0  0  0  0
  5  3  2  0  0  0  0
  7  6  1  0  0  0  0
  8  4  1  0  0  0  0
  9  5  1  0  0  0  0
 10  6  2  0  0  0  0
 10 17  1  0  0  0  0
 10 14  1  0  0  0  0
 11  7  2  0  0  0  0
 11 18  1  0  0  0  0
 11 15  1  0  0  0  0
 12 13  1  0  0  0  0
 12  8  2  0  0  0  0
 13  9  2  0  0  0  0
 14 15  2  0  0  0  0
 14 21  1  0  0  0  0
 15 22  1  0  0  0  0
 16  9  1  0  0  0  0
 19 12  1  0  0  0  0
 20 13  1  0  0  0  0
M  END
