F_R2_anion
 OpenBabel03162120083D

 22 24  0  0  0  0  0  0  0  0999 V2000
   -4.4860   -0.9113   -0.0001 F   0  0  0  0  0  0  0  0  0  0  0  0
    0.2672   -1.3591   -0.0000 N   0  0  0  0  0  0  0  0  0  0  0  0
    0.4975    1.5155    0.0000 N   0  0  0  0  0  0  0  0  0  0  0  0
   -0.8244   -0.5558   -0.0000 C   0  0  0  0  0  0  0  0  0  0  0  0
   -0.7138    0.8913    0.0000 C   0  0  0  0  0  0  0  0  0  0  0  0
    1.4788   -0.7340   -0.0000 C   0  0  0  0  0  0  0  0  0  0  0  0
    1.5925    0.7094    0.0000 C   0  0  0  0  0  0  0  0  0  0  0  0
   -2.1212   -1.1386   -0.0001 C   0  0  0  0  0  0  0  0  0  0  0  0
   -1.9005    1.6633    0.0000 C   0  0  0  0  0  0  0  0  0  0  0  0
    2.6663   -1.5072   -0.0000 C   0  0  0  0  0  0  0  0  0  0  0  0
    2.8899    1.2855    0.0001 C   0  0  0  0  0  0  0  0  0  0  0  0
   -3.2346   -0.3223   -0.0000 C   0  0  0  0  0  0  0  0  0  0  0  0
   -3.1663    1.0718   -0.0000 C   0  0  0  0  0  0  0  0  0  0  0  0
    3.9243   -0.9088    0.0000 C   0  0  0  0  0  0  0  0  0  0  0  0
    4.0359    0.4955    0.0001 C   0  0  0  0  0  0  0  0  0  0  0  0
   -2.2159   -2.2194   -0.0001 H   0  0  0  0  0  0  0  0  0  0  0  0
   -1.7936    2.7446    0.0001 H   0  0  0  0  0  0  0  0  0  0  0  0
    2.5562   -2.5889   -0.0000 H   0  0  0  0  0  0  0  0  0  0  0  0
    2.9523    2.3711    0.0001 H   0  0  0  0  0  0  0  0  0  0  0  0
   -4.0771    1.6621   -0.0000 H   0  0  0  0  0  0  0  0  0  0  0  0
    4.8196   -1.5271    0.0000 H   0  0  0  0  0  0  0  0  0  0  0  0
    5.0180    0.9639    0.0001 H   0  0  0  0  0  0  0  0  0  0  0  0
  1 12  1  0  0  0  0
  2  4  2  0  0  0  0
  2  6  1  0  0  0  0
  4  5  1  0  0  0  0
  5  9  1  0  0  0  0
  5  3  2  0  0  0  0
  6  7  1  0  0  0  0
  7  3  1  0  0  0  0
  7 11  2  0  0  0  0
  8 12  2  0  0  0  0
  8  4  1  0  0  0  0
  9 17  1  0  0  0  0
 10  6  2  0  0  0  0
 10 14  1  0  0  0  0
 11 19  1  0  0  0  0
 12 13  1  0  0  0  0
 13 20  1  0  0  0  0
 13  9  2  0  0  0  0
 14 15  2  0  0  0  0
 15 11  1  0  0  0  0
 15 22  1  0  0  0  0
 16  8  1  0  0  0  0
 18 10  1  0  0  0  0
 21 14  1  0  0  0  0
M  END
