NH2_R127_anion
 OpenBabel02182105543D

 28 30  0  0  0  0  0  0  0  0999 V2000
    0.1080    1.2390    0.0029 N   0  0  0  0  0  0  0  0  0  0  0  0
   -0.4958   -1.5793   -0.0015 N   0  0  0  0  0  0  0  0  0  0  0  0
    2.7265    2.1202   -0.0329 N   0  0  0  0  0  0  0  0  0  0  0  0
    1.0841    0.2942    0.0077 C   0  0  0  0  0  0  0  0  0  0  0  0
    0.7929   -1.1174    0.0057 C   0  0  0  0  0  0  0  0  0  0  0  0
   -1.1787    0.7784   -0.0083 C   0  0  0  0  0  0  0  0  0  0  0  0
   -1.4732   -0.6421   -0.0107 C   0  0  0  0  0  0  0  0  0  0  0  0
    2.4426    0.7249    0.0154 C   0  0  0  0  0  0  0  0  0  0  0  0
    1.8752   -2.0261    0.0235 C   0  0  0  0  0  0  0  0  0  0  0  0
    3.4857   -0.2005    0.0041 C   0  0  0  0  0  0  0  0  0  0  0  0
   -2.2602    1.6852   -0.0121 C   0  0  0  0  0  0  0  0  0  0  0  0
   -2.8353   -1.0489   -0.0137 C   0  0  0  0  0  0  0  0  0  0  0  0
    3.1961   -1.5797    0.0224 C   0  0  0  0  0  0  0  0  0  0  0  0
   -3.5885    1.2531   -0.0185 C   0  0  0  0  0  0  0  0  0  0  0  0
   -3.8780   -0.1268   -0.0169 C   0  0  0  0  0  0  0  0  0  0  0  0
    1.6448   -3.0883    0.0300 H   0  0  0  0  0  0  0  0  0  0  0  0
   -2.0255    2.7471   -0.0105 H   0  0  0  0  0  0  0  0  0  0  0  0
    1.8339    2.6132   -0.0043 H   0  0  0  0  0  0  0  0  0  0  0  0
    3.2981    2.4152    0.7562 H   0  0  0  0  0  0  0  0  0  0  0  0
    4.8270    0.2855    0.0243 N   0  0  0  0  0  0  0  0  0  0  0  0
    4.9052    1.1375   -0.5273 H   0  0  0  0  0  0  0  0  0  0  0  0
    5.4827   -0.4056   -0.3241 H   0  0  0  0  0  0  0  0  0  0  0  0
    4.0165   -2.2962    0.0297 H   0  0  0  0  0  0  0  0  0  0  0  0
   -4.4015    1.9772   -0.0367 H   0  0  0  0  0  0  0  0  0  0  0  0
   -3.0361   -2.1188   -0.0153 H   0  0  0  0  0  0  0  0  0  0  0  0
   -5.2347   -0.5655   -0.0769 N   0  0  0  0  0  0  0  0  0  0  0  0
   -5.3468   -1.5062    0.2850 H   0  0  0  0  0  0  0  0  0  0  0  0
   -5.8630    0.0601    0.4156 H   0  0  0  0  0  0  0  0  0  0  0  0
  1  4  1  0  0  0  0
  2  5  1  0  0  0  0
  3 18  1  0  0  0  0
  3  8  1  0  0  0  0
  3 19  1  0  0  0  0
  4  8  1  0  0  0  0
  5  4  2  0  0  0  0
  5  9  1  0  0  0  0
  6  1  2  0  0  0  0
  7  6  1  0  0  0  0
  7  2  2  0  0  0  0
  9 16  1  0  0  0  0
 10  8  2  0  0  0  0
 10 13  1  0  0  0  0
 10 20  1  0  0  0  0
 11 17  1  0  0  0  0
 11  6  1  0  0  0  0
 12  7  1  0  0  0  0
 13  9  2  0  0  0  0
 13 23  1  0  0  0  0
 14 15  1  0  0  0  0
 14 11  2  0  0  0  0
 15 12  2  0  0  0  0
 21 20  1  0  0  0  0
 22 20  1  0  0  0  0
 24 14  1  0  0  0  0
 25 12  1  0  0  0  0
 26 15  1  0  0  0  0
 26 27  1  0  0  0  0
 26 28  1  0  0  0  0
M  END
