NH2_R2378_anion
 OpenBabel02252114183D

 30 32  0  0  0  0  0  0  0  0999 V2000
    0.0000    1.4427   -0.0000 N   0  0  0  0  0  0  0  0  0  0  0  0
    0.0000   -1.4427    0.0000 N   0  0  0  0  0  0  0  0  0  0  0  0
   -1.1559    0.7242    0.0015 C   0  0  0  0  0  0  0  0  0  0  0  0
   -1.1559   -0.7242   -0.0015 C   0  0  0  0  0  0  0  0  0  0  0  0
    1.1559    0.7242   -0.0016 C   0  0  0  0  0  0  0  0  0  0  0  0
    1.1559   -0.7242    0.0016 C   0  0  0  0  0  0  0  0  0  0  0  0
   -2.4034    1.3944    0.0157 C   0  0  0  0  0  0  0  0  0  0  0  0
   -2.4034   -1.3944   -0.0157 C   0  0  0  0  0  0  0  0  0  0  0  0
   -3.6151    0.7055    0.0173 C   0  0  0  0  0  0  0  0  0  0  0  0
    2.4034    1.3944   -0.0158 C   0  0  0  0  0  0  0  0  0  0  0  0
    2.4034   -1.3944    0.0158 C   0  0  0  0  0  0  0  0  0  0  0  0
   -3.6151   -0.7055   -0.0173 C   0  0  0  0  0  0  0  0  0  0  0  0
    3.6151    0.7055   -0.0173 C   0  0  0  0  0  0  0  0  0  0  0  0
    3.6151   -0.7055    0.0173 C   0  0  0  0  0  0  0  0  0  0  0  0
    2.3885    2.4830   -0.0339 H   0  0  0  0  0  0  0  0  0  0  0  0
    2.3885   -2.4830    0.0339 H   0  0  0  0  0  0  0  0  0  0  0  0
   -4.8773    1.3800   -0.0119 N   0  0  0  0  0  0  0  0  0  0  0  0
   -4.7632    2.3744    0.1542 H   0  0  0  0  0  0  0  0  0  0  0  0
   -5.5132    0.9998    0.6863 H   0  0  0  0  0  0  0  0  0  0  0  0
   -4.8773   -1.3800    0.0119 N   0  0  0  0  0  0  0  0  0  0  0  0
   -4.7632   -2.3744   -0.1542 H   0  0  0  0  0  0  0  0  0  0  0  0
   -5.5132   -0.9998   -0.6864 H   0  0  0  0  0  0  0  0  0  0  0  0
   -2.3885    2.4830    0.0338 H   0  0  0  0  0  0  0  0  0  0  0  0
   -2.3885   -2.4830   -0.0338 H   0  0  0  0  0  0  0  0  0  0  0  0
    4.8773    1.3800    0.0119 N   0  0  0  0  0  0  0  0  0  0  0  0
    4.8773   -1.3800   -0.0119 N   0  0  0  0  0  0  0  0  0  0  0  0
    4.7632   -2.3744    0.1543 H   0  0  0  0  0  0  0  0  0  0  0  0
    5.5132   -0.9998    0.6864 H   0  0  0  0  0  0  0  0  0  0  0  0
    5.5132    0.9998   -0.6864 H   0  0  0  0  0  0  0  0  0  0  0  0
    4.7632    2.3744   -0.1543 H   0  0  0  0  0  0  0  0  0  0  0  0
  1  3  1  0  0  0  0
  2  6  2  0  0  0  0
  3  7  1  0  0  0  0
  4  2  1  0  0  0  0
  4  3  2  0  0  0  0
  5  1  2  0  0  0  0
  5  6  1  0  0  0  0
  6 11  1  0  0  0  0
  7  9  2  0  0  0  0
  7 23  1  0  0  0  0
  8  4  1  0  0  0  0
 10  5  1  0  0  0  0
 11 14  2  0  0  0  0
 11 16  1  0  0  0  0
 12  8  2  0  0  0  0
 12 20  1  0  0  0  0
 12  9  1  0  0  0  0
 13 10  2  0  0  0  0
 13 25  1  0  0  0  0
 13 14  1  0  0  0  0
 15 10  1  0  0  0  0
 17  9  1  0  0  0  0
 17 18  1  0  0  0  0
 17 19  1  0  0  0  0
 21 20  1  0  0  0  0
 22 20  1  0  0  0  0
 24  8  1  0  0  0  0
 26 14  1  0  0  0  0
 26 27  1  0  0  0  0
 26 28  1  0  0  0  0
 29 25  1  0  0  0  0
 30 25  1  0  0  0  0
M  END
