NH2_R1278_anion
 OpenBabel03162120083D

 30 32  0  0  0  0  0  0  0  0999 V2000
    0.3159    1.1192    0.0210 N   0  0  0  0  0  0  0  0  0  0  0  0
   -0.0456   -1.7417   -0.0099 N   0  0  0  0  0  0  0  0  0  0  0  0
   -0.9246    0.5538    0.0071 C   0  0  0  0  0  0  0  0  0  0  0  0
   -1.1002   -0.8846   -0.0059 C   0  0  0  0  0  0  0  0  0  0  0  0
    1.3696    0.2576    0.0151 C   0  0  0  0  0  0  0  0  0  0  0  0
    1.1980   -1.1734   -0.0024 C   0  0  0  0  0  0  0  0  0  0  0  0
   -2.0774    1.3722   -0.0030 C   0  0  0  0  0  0  0  0  0  0  0  0
   -2.4230   -1.3949   -0.0010 C   0  0  0  0  0  0  0  0  0  0  0  0
   -3.3660    0.8381   -0.0160 C   0  0  0  0  0  0  0  0  0  0  0  0
    2.6859    0.8000    0.0231 C   0  0  0  0  0  0  0  0  0  0  0  0
    2.3543   -1.9880    0.0017 C   0  0  0  0  0  0  0  0  0  0  0  0
   -3.5398   -0.5623    0.0043 C   0  0  0  0  0  0  0  0  0  0  0  0
    3.8045   -0.0338   -0.0027 C   0  0  0  0  0  0  0  0  0  0  0  0
    3.6331   -1.4319    0.0010 C   0  0  0  0  0  0  0  0  0  0  0  0
    4.5110   -2.0768   -0.0019 H   0  0  0  0  0  0  0  0  0  0  0  0
    2.8530    2.2157   -0.0106 N   0  0  0  0  0  0  0  0  0  0  0  0
    1.9218    2.6308    0.0224 H   0  0  0  0  0  0  0  0  0  0  0  0
    3.3942    2.5479    0.7854 H   0  0  0  0  0  0  0  0  0  0  0  0
   -2.5423   -2.4770    0.0073 H   0  0  0  0  0  0  0  0  0  0  0  0
   -1.9304    2.4512   -0.0099 H   0  0  0  0  0  0  0  0  0  0  0  0
    5.1000    0.5644    0.0182 N   0  0  0  0  0  0  0  0  0  0  0  0
    5.8091   -0.0634   -0.3451 H   0  0  0  0  0  0  0  0  0  0  0  0
    5.1014    1.4278   -0.5210 H   0  0  0  0  0  0  0  0  0  0  0  0
    2.2143   -3.0658   -0.0025 H   0  0  0  0  0  0  0  0  0  0  0  0
   -4.8755   -1.0749   -0.0346 N   0  0  0  0  0  0  0  0  0  0  0  0
   -4.8854   -2.0788    0.1122 H   0  0  0  0  0  0  0  0  0  0  0  0
   -5.4606   -0.6324    0.6712 H   0  0  0  0  0  0  0  0  0  0  0  0
   -4.5341    1.6631    0.0140 N   0  0  0  0  0  0  0  0  0  0  0  0
   -4.3001    2.6359   -0.1540 H   0  0  0  0  0  0  0  0  0  0  0  0
   -5.2150    1.3616   -0.6801 H   0  0  0  0  0  0  0  0  0  0  0  0
  2  4  2  0  0  0  0
  2  6  1  0  0  0  0
  3  1  2  0  0  0  0
  4  8  1  0  0  0  0
  4  3  1  0  0  0  0
  5  1  1  0  0  0  0
  5 10  1  0  0  0  0
  6 11  1  0  0  0  0
  6  5  2  0  0  0  0
  7  3  1  0  0  0  0
  8 12  2  0  0  0  0
  8 19  1  0  0  0  0
  9  7  2  0  0  0  0
  9 12  1  0  0  0  0
  9 28  1  0  0  0  0
 13 14  1  0  0  0  0
 13 21  1  0  0  0  0
 13 10  2  0  0  0  0
 14 11  2  0  0  0  0
 15 14  1  0  0  0  0
 16 17  1  0  0  0  0
 16 10  1  0  0  0  0
 16 18  1  0  0  0  0
 20  7  1  0  0  0  0
 22 21  1  0  0  0  0
 23 21  1  0  0  0  0
 24 11  1  0  0  0  0
 25 12  1  0  0  0  0
 25 26  1  0  0  0  0
 25 27  1  0  0  0  0
 29 28  1  0  0  0  0
 30 28  1  0  0  0  0
M  END
