NH2_R1367_anion
 OpenBabel02212111253D

 30 32  0  0  0  0  0  0  0  0999 V2000
   -0.1795   -1.2273    0.0270 N   0  0  0  0  0  0  0  0  0  0  0  0
    0.2325    1.6235    0.0106 N   0  0  0  0  0  0  0  0  0  0  0  0
    1.0725   -0.6927    0.0272 C   0  0  0  0  0  0  0  0  0  0  0  0
    1.2692    0.7338    0.0285 C   0  0  0  0  0  0  0  0  0  0  0  0
   -1.2181   -0.3426    0.0204 C   0  0  0  0  0  0  0  0  0  0  0  0
   -1.0236    1.0853    0.0065 C   0  0  0  0  0  0  0  0  0  0  0  0
    2.2068   -1.5440    0.0054 C   0  0  0  0  0  0  0  0  0  0  0  0
    2.6002    1.2417    0.0253 C   0  0  0  0  0  0  0  0  0  0  0  0
    3.4959   -1.0192   -0.0104 C   0  0  0  0  0  0  0  0  0  0  0  0
   -2.5421   -0.8608    0.0206 C   0  0  0  0  0  0  0  0  0  0  0  0
   -2.1646    1.9207   -0.0004 C   0  0  0  0  0  0  0  0  0  0  0  0
    3.6977    0.3757    0.0060 C   0  0  0  0  0  0  0  0  0  0  0  0
   -3.6475   -0.0075   -0.0142 C   0  0  0  0  0  0  0  0  0  0  0  0
   -3.4530    1.3866   -0.0105 C   0  0  0  0  0  0  0  0  0  0  0  0
   -4.3194    2.0468   -0.0204 H   0  0  0  0  0  0  0  0  0  0  0  0
   -2.7342   -2.2732   -0.0162 N   0  0  0  0  0  0  0  0  0  0  0  0
   -1.8098   -2.7036    0.0185 H   0  0  0  0  0  0  0  0  0  0  0  0
   -3.2820   -2.5973    0.7785 H   0  0  0  0  0  0  0  0  0  0  0  0
    2.0386   -2.6189   -0.0013 H   0  0  0  0  0  0  0  0  0  0  0  0
    4.6281   -1.8850    0.0227 N   0  0  0  0  0  0  0  0  0  0  0  0
    4.4121   -2.8072   -0.3391 H   0  0  0  0  0  0  0  0  0  0  0  0
    5.4219   -1.5028   -0.4796 H   0  0  0  0  0  0  0  0  0  0  0  0
    4.7079    0.7806    0.0459 H   0  0  0  0  0  0  0  0  0  0  0  0
    2.7638    2.6403    0.0856 N   0  0  0  0  0  0  0  0  0  0  0  0
    1.8716    3.0955   -0.0961 H   0  0  0  0  0  0  0  0  0  0  0  0
    3.5034    2.9928   -0.5101 H   0  0  0  0  0  0  0  0  0  0  0  0
   -2.0075    2.9963   -0.0019 H   0  0  0  0  0  0  0  0  0  0  0  0
   -4.9516   -0.5850   -0.0026 N   0  0  0  0  0  0  0  0  0  0  0  0
   -5.6492    0.0522   -0.3719 H   0  0  0  0  0  0  0  0  0  0  0  0
   -4.9621   -1.4509   -0.5377 H   0  0  0  0  0  0  0  0  0  0  0  0
  1  3  1  0  0  0  0
  2  4  1  0  0  0  0
  3  4  1  0  0  0  0
  5 10  1  0  0  0  0
  5  1  2  0  0  0  0
  6  2  2  0  0  0  0
  6  5  1  0  0  0  0
  7  3  2  0  0  0  0
  8  4  2  0  0  0  0
  8 24  1  0  0  0  0
  9  7  1  0  0  0  0
  9 12  2  0  0  0  0
  9 20  1  0  0  0  0
 11  6  1  0  0  0  0
 12  8  1  0  0  0  0
 12 23  1  0  0  0  0
 13 14  1  0  0  0  0
 13 28  1  0  0  0  0
 13 10  2  0  0  0  0
 14 11  2  0  0  0  0
 15 14  1  0  0  0  0
 16 17  1  0  0  0  0
 16 10  1  0  0  0  0
 16 18  1  0  0  0  0
 19  7  1  0  0  0  0
 21 20  1  0  0  0  0
 22 20  1  0  0  0  0
 25 24  1  0  0  0  0
 26 24  1  0  0  0  0
 27 11  1  0  0  0  0
 29 28  1  0  0  0  0
 30 28  1  0  0  0  0
M  END
