NH2_R1249_anion
 OpenBabel03162120083D

 30 32  0  0  0  0  0  0  0  0999 V2000
    0.4277    1.7357    0.0087 N   0  0  0  0  0  0  0  0  0  0  0  0
    0.4835   -1.1407    0.0322 N   0  0  0  0  0  0  0  0  0  0  0  0
    1.6044    1.0503    0.0038 C   0  0  0  0  0  0  0  0  0  0  0  0
    1.6280   -0.3902    0.0235 C   0  0  0  0  0  0  0  0  0  0  0  0
   -0.7167    0.9846    0.0329 C   0  0  0  0  0  0  0  0  0  0  0  0
   -0.6918   -0.4504    0.0381 C   0  0  0  0  0  0  0  0  0  0  0  0
    2.8367    1.7556   -0.0371 C   0  0  0  0  0  0  0  0  0  0  0  0
    2.8843   -1.0630    0.0145 C   0  0  0  0  0  0  0  0  0  0  0  0
    4.0457    1.0706   -0.0554 C   0  0  0  0  0  0  0  0  0  0  0  0
   -1.9730    1.6537    0.0399 C   0  0  0  0  0  0  0  0  0  0  0  0
   -1.9173   -1.1722    0.0201 C   0  0  0  0  0  0  0  0  0  0  0  0
    4.0771   -0.3366   -0.0239 C   0  0  0  0  0  0  0  0  0  0  0  0
   -3.1599    0.9209    0.0144 C   0  0  0  0  0  0  0  0  0  0  0  0
   -3.1307   -0.4896   -0.0193 C   0  0  0  0  0  0  0  0  0  0  0  0
   -4.1175    1.4389    0.0454 H   0  0  0  0  0  0  0  0  0  0  0  0
   -1.9041   -2.6050   -0.0333 N   0  0  0  0  0  0  0  0  0  0  0  0
   -0.9271   -2.8892   -0.0904 H   0  0  0  0  0  0  0  0  0  0  0  0
   -2.2887   -3.0061    0.8215 H   0  0  0  0  0  0  0  0  0  0  0  0
   -1.9693    3.0660    0.1103 N   0  0  0  0  0  0  0  0  0  0  0  0
   -1.0244    3.4050   -0.0600 H   0  0  0  0  0  0  0  0  0  0  0  0
   -2.6381    3.5012   -0.5148 H   0  0  0  0  0  0  0  0  0  0  0  0
    2.7980    2.8416   -0.0545 H   0  0  0  0  0  0  0  0  0  0  0  0
    4.9822    1.6243   -0.0862 H   0  0  0  0  0  0  0  0  0  0  0  0
    5.0278   -0.8667   -0.0139 H   0  0  0  0  0  0  0  0  0  0  0  0
   -4.3357   -1.2450   -0.0301 N   0  0  0  0  0  0  0  0  0  0  0  0
   -4.1909   -2.1333   -0.5049 H   0  0  0  0  0  0  0  0  0  0  0  0
   -5.1010   -0.7383   -0.4616 H   0  0  0  0  0  0  0  0  0  0  0  0
    2.8767   -2.4748    0.0872 N   0  0  0  0  0  0  0  0  0  0  0  0
    1.9402   -2.8216   -0.1028 H   0  0  0  0  0  0  0  0  0  0  0  0
    3.5672   -2.9123   -0.5115 H   0  0  0  0  0  0  0  0  0  0  0  0
  1  5  1  0  0  0  0
  2  6  1  0  0  0  0
  3  1  2  0  0  0  0
  3  4  1  0  0  0  0
  4  2  2  0  0  0  0
  5  6  2  0  0  0  0
  5 10  1  0  0  0  0
  7  3  1  0  0  0  0
  8  4  1  0  0  0  0
  8 28  1  0  0  0  0
  9  7  2  0  0  0  0
  9 12  1  0  0  0  0
 10 19  1  0  0  0  0
 11  6  1  0  0  0  0
 12 24  1  0  0  0  0
 12  8  2  0  0  0  0
 13 10  2  0  0  0  0
 13 15  1  0  0  0  0
 14 13  1  0  0  0  0
 14 11  2  0  0  0  0
 16 11  1  0  0  0  0
 16 18  1  0  0  0  0
 17 16  1  0  0  0  0
 20 19  1  0  0  0  0
 21 19  1  0  0  0  0
 22  7  1  0  0  0  0
 23  9  1  0  0  0  0
 25 14  1  0  0  0  0
 26 25  1  0  0  0  0
 27 25  1  0  0  0  0
 29 28  1  0  0  0  0
 30 28  1  0  0  0  0
M  END
