NH2_R237_anion
 OpenBabel02222114233D

 28 30  0  0  0  0  0  0  0  0999 V2000
   -0.2347    1.5668   -0.0200 N   0  0  0  0  0  0  0  0  0  0  0  0
   -0.4274   -1.3112    0.0293 N   0  0  0  0  0  0  0  0  0  0  0  0
    0.8697    0.7757   -0.0090 C   0  0  0  0  0  0  0  0  0  0  0  0
    0.7751   -0.6690    0.0142 C   0  0  0  0  0  0  0  0  0  0  0  0
   -1.4382    0.9234   -0.0053 C   0  0  0  0  0  0  0  0  0  0  0  0
   -1.5312   -0.5232    0.0201 C   0  0  0  0  0  0  0  0  0  0  0  0
    2.1600    1.3632   -0.0093 C   0  0  0  0  0  0  0  0  0  0  0  0
    1.9739   -1.4197    0.0082 C   0  0  0  0  0  0  0  0  0  0  0  0
    3.3223    0.5961    0.0017 C   0  0  0  0  0  0  0  0  0  0  0  0
   -2.6396    1.6678   -0.0168 C   0  0  0  0  0  0  0  0  0  0  0  0
   -2.8196   -1.1198    0.0276 C   0  0  0  0  0  0  0  0  0  0  0  0
    3.2289   -0.8126   -0.0084 C   0  0  0  0  0  0  0  0  0  0  0  0
   -3.8926    1.0514   -0.0058 C   0  0  0  0  0  0  0  0  0  0  0  0
   -3.9837   -0.3547    0.0138 C   0  0  0  0  0  0  0  0  0  0  0  0
    1.8872   -2.5051    0.0089 H   0  0  0  0  0  0  0  0  0  0  0  0
   -2.5559    2.7519   -0.0351 H   0  0  0  0  0  0  0  0  0  0  0  0
   -2.8671   -2.2073    0.0472 H   0  0  0  0  0  0  0  0  0  0  0  0
   -4.8003    1.6530   -0.0016 H   0  0  0  0  0  0  0  0  0  0  0  0
    4.6263    1.1837   -0.0403 N   0  0  0  0  0  0  0  0  0  0  0  0
    4.5806    2.1853    0.1144 H   0  0  0  0  0  0  0  0  0  0  0  0
    5.2388    0.7686    0.6588 H   0  0  0  0  0  0  0  0  0  0  0  0
    4.4432   -1.5685    0.0289 N   0  0  0  0  0  0  0  0  0  0  0  0
    4.2632   -2.5566   -0.1142 H   0  0  0  0  0  0  0  0  0  0  0  0
    5.1004   -1.2460   -0.6786 H   0  0  0  0  0  0  0  0  0  0  0  0
    2.2166    2.4505   -0.0095 H   0  0  0  0  0  0  0  0  0  0  0  0
   -5.2647   -0.9823    0.0772 N   0  0  0  0  0  0  0  0  0  0  0  0
   -5.2402   -1.9307   -0.2813 H   0  0  0  0  0  0  0  0  0  0  0  0
   -5.9738   -0.4552   -0.4209 H   0  0  0  0  0  0  0  0  0  0  0  0
  1  3  2  0  0  0  0
  1  5  1  0  0  0  0
  3  4  1  0  0  0  0
  4  2  2  0  0  0  0
  5  6  1  0  0  0  0
  6 11  2  0  0  0  0
  6  2  1  0  0  0  0
  7  3  1  0  0  0  0
  7  9  2  0  0  0  0
  8 15  1  0  0  0  0
  8  4  1  0  0  0  0
 10 13  1  0  0  0  0
 10  5  2  0  0  0  0
 11 17  1  0  0  0  0
 12  9  1  0  0  0  0
 12  8  2  0  0  0  0
 12 22  1  0  0  0  0
 13 18  1  0  0  0  0
 13 14  2  0  0  0  0
 14 11  1  0  0  0  0
 14 26  1  0  0  0  0
 16 10  1  0  0  0  0
 19  9  1  0  0  0  0
 19 20  1  0  0  0  0
 19 21  1  0  0  0  0
 23 22  1  0  0  0  0
 24 22  1  0  0  0  0
 25  7  1  0  0  0  0
 27 26  1  0  0  0  0
 28 26  1  0  0  0  0
M  END
