NH2_R1_anion
 OpenBabel02222114233D

 24 26  0  0  0  0  0  0  0  0999 V2000
    0.0395    1.2166   -0.0046 N   0  0  0  0  0  0  0  0  0  0  0  0
    0.3721   -1.6438   -0.0057 N   0  0  0  0  0  0  0  0  0  0  0  0
   -2.4531    2.3238   -0.0878 N   0  0  0  0  0  0  0  0  0  0  0  0
   -1.0237    0.3620   -0.0175 C   0  0  0  0  0  0  0  0  0  0  0  0
   -0.8638   -1.0685   -0.0089 C   0  0  0  0  0  0  0  0  0  0  0  0
    1.2742    0.6437    0.0005 C   0  0  0  0  0  0  0  0  0  0  0  0
    1.4373   -0.7966   -0.0056 C   0  0  0  0  0  0  0  0  0  0  0  0
   -2.3386    0.9188   -0.0202 C   0  0  0  0  0  0  0  0  0  0  0  0
   -2.0246   -1.8861    0.0114 C   0  0  0  0  0  0  0  0  0  0  0  0
   -3.4564    0.0832   -0.0005 C   0  0  0  0  0  0  0  0  0  0  0  0
    2.4342    1.4584    0.0110 C   0  0  0  0  0  0  0  0  0  0  0  0
    2.7544   -1.3241   -0.0050 C   0  0  0  0  0  0  0  0  0  0  0  0
   -3.2918   -1.3159    0.0214 C   0  0  0  0  0  0  0  0  0  0  0  0
    3.7135    0.9046    0.0123 C   0  0  0  0  0  0  0  0  0  0  0  0
    3.8737   -0.4939    0.0035 C   0  0  0  0  0  0  0  0  0  0  0  0
   -1.8842   -2.9636    0.0221 H   0  0  0  0  0  0  0  0  0  0  0  0
   -4.4534    0.5199   -0.0181 H   0  0  0  0  0  0  0  0  0  0  0  0
    2.2878    2.5362    0.0153 H   0  0  0  0  0  0  0  0  0  0  0  0
    2.8556   -2.4068   -0.0100 H   0  0  0  0  0  0  0  0  0  0  0  0
   -4.1730   -1.9546    0.0382 H   0  0  0  0  0  0  0  0  0  0  0  0
    4.5864    1.5544    0.0189 H   0  0  0  0  0  0  0  0  0  0  0  0
    4.8716   -0.9282    0.0037 H   0  0  0  0  0  0  0  0  0  0  0  0
   -1.5481    2.7504    0.0981 H   0  0  0  0  0  0  0  0  0  0  0  0
   -3.1824    2.7021    0.5046 H   0  0  0  0  0  0  0  0  0  0  0  0
  1  6  1  0  0  0  0
  2  7  1  0  0  0  0
  3  8  1  0  0  0  0
  3 23  1  0  0  0  0
  3 24  1  0  0  0  0
  4  5  1  0  0  0  0
  4  1  2  0  0  0  0
  5  2  2  0  0  0  0
  5  9  1  0  0  0  0
  6 11  1  0  0  0  0
  7 12  1  0  0  0  0
  7  6  2  0  0  0  0
  8  4  1  0  0  0  0
  8 10  2  0  0  0  0
  9 13  2  0  0  0  0
  9 16  1  0  0  0  0
 10 13  1  0  0  0  0
 11 14  2  0  0  0  0
 11 18  1  0  0  0  0
 12 15  2  0  0  0  0
 13 20  1  0  0  0  0
 14 21  1  0  0  0  0
 15 22  1  0  0  0  0
 15 14  1  0  0  0  0
 17 10  1  0  0  0  0
 19 12  1  0  0  0  0
M  END
