NH2_R1247_anion
 OpenBabel03162103393D

 30 32  0  0  0  0  0  0  0  0999 V2000
    0.0589   -1.4652    0.0245 N   0  0  0  0  0  0  0  0  0  0  0  0
    0.5170    1.3763    0.0027 N   0  0  0  0  0  0  0  0  0  0  0  0
    1.3203   -0.9374    0.0052 C   0  0  0  0  0  0  0  0  0  0  0  0
    1.5462    0.4955   -0.0081 C   0  0  0  0  0  0  0  0  0  0  0  0
   -0.9696   -0.5762    0.0351 C   0  0  0  0  0  0  0  0  0  0  0  0
   -0.7445    0.8410    0.0283 C   0  0  0  0  0  0  0  0  0  0  0  0
    2.4470   -1.7871   -0.0013 C   0  0  0  0  0  0  0  0  0  0  0  0
    2.8842    0.9717   -0.0264 C   0  0  0  0  0  0  0  0  0  0  0  0
    3.7523   -1.2884   -0.0206 C   0  0  0  0  0  0  0  0  0  0  0  0
   -2.3047   -1.0737    0.0230 C   0  0  0  0  0  0  0  0  0  0  0  0
   -1.8630    1.7194    0.0399 C   0  0  0  0  0  0  0  0  0  0  0  0
    3.9728    0.1033   -0.0307 C   0  0  0  0  0  0  0  0  0  0  0  0
   -3.3785   -0.1902   -0.0103 C   0  0  0  0  0  0  0  0  0  0  0  0
   -3.1597    1.2051    0.0226 C   0  0  0  0  0  0  0  0  0  0  0  0
   -4.0118    1.8825    0.0592 H   0  0  0  0  0  0  0  0  0  0  0  0
   -1.6130    3.1113    0.1075 N   0  0  0  0  0  0  0  0  0  0  0  0
   -0.6240    3.2783   -0.0677 H   0  0  0  0  0  0  0  0  0  0  0  0
   -2.1944    3.6516   -0.5232 H   0  0  0  0  0  0  0  0  0  0  0  0
    3.0323    2.0503   -0.0366 H   0  0  0  0  0  0  0  0  0  0  0  0
    2.2668   -2.8595    0.0084 H   0  0  0  0  0  0  0  0  0  0  0  0
    5.3048    0.6108   -0.1034 N   0  0  0  0  0  0  0  0  0  0  0  0
    5.3734    1.5529    0.2660 H   0  0  0  0  0  0  0  0  0  0  0  0
    5.9691    0.0141    0.3775 H   0  0  0  0  0  0  0  0  0  0  0  0
    4.6002   -1.9712   -0.0388 H   0  0  0  0  0  0  0  0  0  0  0  0
   -2.5351   -2.4870   -0.0362 N   0  0  0  0  0  0  0  0  0  0  0  0
   -1.6184   -2.9305   -0.1021 H   0  0  0  0  0  0  0  0  0  0  0  0
   -2.9778   -2.8224    0.8185 H   0  0  0  0  0  0  0  0  0  0  0  0
   -4.6986   -0.7216   -0.0175 N   0  0  0  0  0  0  0  0  0  0  0  0
   -5.3610   -0.0912   -0.4564 H   0  0  0  0  0  0  0  0  0  0  0  0
   -4.7101   -1.6236   -0.4888 H   0  0  0  0  0  0  0  0  0  0  0  0
  1  5  1  0  0  0  0
  2  6  1  0  0  0  0
  3  1  2  0  0  0  0
  4  2  2  0  0  0  0
  4  3  1  0  0  0  0
  6  5  1  0  0  0  0
  6 11  2  0  0  0  0
  7  3  1  0  0  0  0
  7 20  1  0  0  0  0
  8  4  1  0  0  0  0
  9  7  2  0  0  0  0
 10  5  2  0  0  0  0
 11 16  1  0  0  0  0
 12  8  2  0  0  0  0
 12  9  1  0  0  0  0
 13 14  2  0  0  0  0
 13 10  1  0  0  0  0
 14 11  1  0  0  0  0
 14 15  1  0  0  0  0
 17 16  1  0  0  0  0
 18 16  1  0  0  0  0
 19  8  1  0  0  0  0
 21 12  1  0  0  0  0
 21 22  1  0  0  0  0
 21 23  1  0  0  0  0
 24  9  1  0  0  0  0
 25 10  1  0  0  0  0
 25 27  1  0  0  0  0
 26 25  1  0  0  0  0
 28 13  1  0  0  0  0
 29 28  1  0  0  0  0
 30 28  1  0  0  0  0
M  END
