NH2_R136_anion
 OpenBabel03162103393D

 28 30  0  0  0  0  0  0  0  0999 V2000
    0.1928    1.5680    0.0017 N   0  0  0  0  0  0  0  0  0  0  0  0
    0.4608   -1.2966   -0.0080 N   0  0  0  0  0  0  0  0  0  0  0  0
   -2.2873    2.7085    0.0815 N   0  0  0  0  0  0  0  0  0  0  0  0
   -0.8885    0.7303    0.0099 C   0  0  0  0  0  0  0  0  0  0  0  0
   -0.7624   -0.7036    0.0008 C   0  0  0  0  0  0  0  0  0  0  0  0
    1.4180    0.9732   -0.0074 C   0  0  0  0  0  0  0  0  0  0  0  0
    1.5433   -0.4610   -0.0151 C   0  0  0  0  0  0  0  0  0  0  0  0
   -2.1916    1.3037    0.0160 C   0  0  0  0  0  0  0  0  0  0  0  0
   -1.9379   -1.4993   -0.0071 C   0  0  0  0  0  0  0  0  0  0  0  0
   -3.3303    0.4924    0.0019 C   0  0  0  0  0  0  0  0  0  0  0  0
    2.5968    1.7654    0.0085 C   0  0  0  0  0  0  0  0  0  0  0  0
    2.8448   -1.0446   -0.0189 C   0  0  0  0  0  0  0  0  0  0  0  0
   -3.1985   -0.9110   -0.0128 C   0  0  0  0  0  0  0  0  0  0  0  0
    3.8515    1.1672    0.0170 C   0  0  0  0  0  0  0  0  0  0  0  0
    3.9829   -0.2348   -0.0024 C   0  0  0  0  0  0  0  0  0  0  0  0
   -1.8220   -2.5810   -0.0208 H   0  0  0  0  0  0  0  0  0  0  0  0
    2.4819    2.8462    0.0197 H   0  0  0  0  0  0  0  0  0  0  0  0
    4.7467    1.7862    0.0314 H   0  0  0  0  0  0  0  0  0  0  0  0
    4.9691   -0.6954   -0.0222 H   0  0  0  0  0  0  0  0  0  0  0  0
   -1.3738    3.1197   -0.0995 H   0  0  0  0  0  0  0  0  0  0  0  0
   -3.0072    3.0972   -0.5158 H   0  0  0  0  0  0  0  0  0  0  0  0
   -4.3723   -1.7170   -0.0821 N   0  0  0  0  0  0  0  0  0  0  0  0
   -4.2101   -2.6548    0.2676 H   0  0  0  0  0  0  0  0  0  0  0  0
   -5.1545   -1.3033    0.4136 H   0  0  0  0  0  0  0  0  0  0  0  0
   -4.3197    0.9475    0.0118 H   0  0  0  0  0  0  0  0  0  0  0  0
    2.9298   -2.4531   -0.0850 N   0  0  0  0  0  0  0  0  0  0  0  0
    2.0127   -2.8562    0.0953 H   0  0  0  0  0  0  0  0  0  0  0  0
    3.6421   -2.8445    0.5197 H   0  0  0  0  0  0  0  0  0  0  0  0
  1  4  1  0  0  0  0
  2  5  1  0  0  0  0
  4  8  1  0  0  0  0
  5  4  2  0  0  0  0
  6  1  2  0  0  0  0
  6 11  1  0  0  0  0
  7  2  2  0  0  0  0
  7  6  1  0  0  0  0
  8  3  1  0  0  0  0
  9  5  1  0  0  0  0
 10 25  1  0  0  0  0
 10  8  2  0  0  0  0
 11 14  2  0  0  0  0
 11 17  1  0  0  0  0
 12  7  1  0  0  0  0
 12 15  2  0  0  0  0
 13  9  2  0  0  0  0
 13 10  1  0  0  0  0
 14 18  1  0  0  0  0
 15 14  1  0  0  0  0
 16  9  1  0  0  0  0
 19 15  1  0  0  0  0
 20  3  1  0  0  0  0
 21  3  1  0  0  0  0
 22 13  1  0  0  0  0
 22 23  1  0  0  0  0
 22 24  1  0  0  0  0
 26 12  1  0  0  0  0
 26 27  1  0  0  0  0
 26 28  1  0  0  0  0
M  END
