NH2_R123678_anion
 OpenBabel02252114183D

 34 36  0  0  0  0  0  0  0  0999 V2000
    0.1456   -1.4314   -0.0089 N   0  0  0  0  0  0  0  0  0  0  0  0
   -0.1452    1.4358    0.0353 N   0  0  0  0  0  0  0  0  0  0  0  0
   -1.0844   -0.8414   -0.0036 C   0  0  0  0  0  0  0  0  0  0  0  0
   -1.2194    0.5920    0.0184 C   0  0  0  0  0  0  0  0  0  0  0  0
    1.2197   -0.5854   -0.0026 C   0  0  0  0  0  0  0  0  0  0  0  0
    1.0841    0.8483    0.0198 C   0  0  0  0  0  0  0  0  0  0  0  0
   -2.2590   -1.6324    0.0150 C   0  0  0  0  0  0  0  0  0  0  0  0
   -2.5231    1.1569    0.0218 C   0  0  0  0  0  0  0  0  0  0  0  0
   -3.5260   -1.0534    0.0121 C   0  0  0  0  0  0  0  0  0  0  0  0
    2.5249   -1.1487    0.0027 C   0  0  0  0  0  0  0  0  0  0  0  0
    2.2561    1.6439    0.0401 C   0  0  0  0  0  0  0  0  0  0  0  0
   -3.6623    0.3503   -0.0202 C   0  0  0  0  0  0  0  0  0  0  0  0
    3.6660   -0.3377    0.0015 C   0  0  0  0  0  0  0  0  0  0  0  0
    3.5246    1.0682    0.0167 C   0  0  0  0  0  0  0  0  0  0  0  0
   -4.7276   -1.8377   -0.0378 N   0  0  0  0  0  0  0  0  0  0  0  0
   -4.5091   -2.8287   -0.0382 H   0  0  0  0  0  0  0  0  0  0  0  0
   -5.3338   -1.6447    0.7577 H   0  0  0  0  0  0  0  0  0  0  0  0
   -4.9593    0.9430   -0.0530 N   0  0  0  0  0  0  0  0  0  0  0  0
   -4.9036    1.8611   -0.4894 H   0  0  0  0  0  0  0  0  0  0  0  0
   -5.5998    0.3557   -0.5824 H   0  0  0  0  0  0  0  0  0  0  0  0
    4.7041    1.8586    0.0478 N   0  0  0  0  0  0  0  0  0  0  0  0
    4.5637    2.7694   -0.3750 H   0  0  0  0  0  0  0  0  0  0  0  0
    5.4712    1.3657   -0.4025 H   0  0  0  0  0  0  0  0  0  0  0  0
    4.9896   -0.8986   -0.1072 N   0  0  0  0  0  0  0  0  0  0  0  0
    4.9347   -1.8213   -0.5319 H   0  0  0  0  0  0  0  0  0  0  0  0
    5.4514   -0.9947    0.7960 H   0  0  0  0  0  0  0  0  0  0  0  0
    2.6462   -2.5652   -0.0640 N   0  0  0  0  0  0  0  0  0  0  0  0
    1.7007   -2.9486   -0.0296 H   0  0  0  0  0  0  0  0  0  0  0  0
    3.1898   -2.9420    0.7090 H   0  0  0  0  0  0  0  0  0  0  0  0
   -2.6640    2.5756   -0.0171 N   0  0  0  0  0  0  0  0  0  0  0  0
   -3.1688    2.9255    0.7951 H   0  0  0  0  0  0  0  0  0  0  0  0
   -1.7218    2.9680   -0.0092 H   0  0  0  0  0  0  0  0  0  0  0  0
   -2.1453   -2.7149    0.0358 H   0  0  0  0  0  0  0  0  0  0  0  0
    2.1387    2.7251    0.0692 H   0  0  0  0  0  0  0  0  0  0  0  0
  1  3  2  0  0  0  0
  1  5  1  0  0  0  0
  3  7  1  0  0  0  0
  3  4  1  0  0  0  0
  4  8  1  0  0  0  0
  4  2  2  0  0  0  0
  5 10  2  0  0  0  0
  5  6  1  0  0  0  0
  6  2  1  0  0  0  0
  6 11  2  0  0  0  0
  7 33  1  0  0  0  0
  9  7  2  0  0  0  0
 11 34  1  0  0  0  0
 12  9  1  0  0  0  0
 12  8  2  0  0  0  0
 13 10  1  0  0  0  0
 13 14  2  0  0  0  0
 14 11  1  0  0  0  0
 14 21  1  0  0  0  0
 15  9  1  0  0  0  0
 15 17  1  0  0  0  0
 16 15  1  0  0  0  0
 18 12  1  0  0  0  0
 19 18  1  0  0  0  0
 20 18  1  0  0  0  0
 22 21  1  0  0  0  0
 23 21  1  0  0  0  0
 24 13  1  0  0  0  0
 24 26  1  0  0  0  0
 25 24  1  0  0  0  0
 27 28  1  0  0  0  0
 27 10  1  0  0  0  0
 27 29  1  0  0  0  0
 30 32  1  0  0  0  0
 30  8  1  0  0  0  0
 30 31  1  0  0  0  0
M  END
