NH2_R236789_anion
 OpenBabel02252114183D

 34 36  0  0  0  0  0  0  0  0999 V2000
   -0.2565   -1.4391   -0.0142 N   0  0  0  0  0  0  0  0  0  0  0  0
   -0.2585    1.4423    0.0313 N   0  0  0  0  0  0  0  0  0  0  0  0
   -1.4151   -0.7250   -0.0093 C   0  0  0  0  0  0  0  0  0  0  0  0
   -1.4164    0.7246    0.0111 C   0  0  0  0  0  0  0  0  0  0  0  0
    0.9030   -0.7127   -0.0047 C   0  0  0  0  0  0  0  0  0  0  0  0
    0.9008    0.7213    0.0203 C   0  0  0  0  0  0  0  0  0  0  0  0
   -2.6622   -1.3956   -0.0100 C   0  0  0  0  0  0  0  0  0  0  0  0
   -2.6639    1.3922    0.0027 C   0  0  0  0  0  0  0  0  0  0  0  0
   -3.8752   -0.7079   -0.0034 C   0  0  0  0  0  0  0  0  0  0  0  0
    2.1449   -1.4031    0.0127 C   0  0  0  0  0  0  0  0  0  0  0  0
    2.1404    1.4158    0.0408 C   0  0  0  0  0  0  0  0  0  0  0  0
   -3.8761    0.7024   -0.0161 C   0  0  0  0  0  0  0  0  0  0  0  0
    3.3500   -0.6979    0.0025 C   0  0  0  0  0  0  0  0  0  0  0  0
    3.3449    0.7165   -0.0017 C   0  0  0  0  0  0  0  0  0  0  0  0
   -5.1362   -1.3835   -0.0497 N   0  0  0  0  0  0  0  0  0  0  0  0
   -5.0222   -2.3810    0.0964 H   0  0  0  0  0  0  0  0  0  0  0  0
   -5.7755   -1.0180    0.6532 H   0  0  0  0  0  0  0  0  0  0  0  0
   -5.1380    1.3765    0.0164 N   0  0  0  0  0  0  0  0  0  0  0  0
   -5.0243    2.3727   -0.1388 H   0  0  0  0  0  0  0  0  0  0  0  0
   -5.7722    1.0032   -0.6869 H   0  0  0  0  0  0  0  0  0  0  0  0
    4.5774    1.4231   -0.0199 N   0  0  0  0  0  0  0  0  0  0  0  0
    4.4644    2.3109   -0.5041 H   0  0  0  0  0  0  0  0  0  0  0  0
    5.2932    0.8573   -0.4701 H   0  0  0  0  0  0  0  0  0  0  0  0
    4.6139   -1.3753   -0.1089 N   0  0  0  0  0  0  0  0  0  0  0  0
    4.4557   -2.3286   -0.4260 H   0  0  0  0  0  0  0  0  0  0  0  0
    5.1190   -1.4115    0.7751 H   0  0  0  0  0  0  0  0  0  0  0  0
    2.1413   -2.8339   -0.0301 N   0  0  0  0  0  0  0  0  0  0  0  0
    1.1620   -3.1190   -0.0766 H   0  0  0  0  0  0  0  0  0  0  0  0
    2.5397   -3.2318    0.8191 H   0  0  0  0  0  0  0  0  0  0  0  0
   -2.6484   -2.4844   -0.0089 H   0  0  0  0  0  0  0  0  0  0  0  0
   -2.6520    2.4810    0.0014 H   0  0  0  0  0  0  0  0  0  0  0  0
    2.1473    2.8451    0.0108 N   0  0  0  0  0  0  0  0  0  0  0  0
    2.6025    3.2316    0.8363 H   0  0  0  0  0  0  0  0  0  0  0  0
    1.1728    3.1468    0.0099 H   0  0  0  0  0  0  0  0  0  0  0  0
  1  3  2  0  0  0  0
  1  5  1  0  0  0  0
  3  4  1  0  0  0  0
  4  2  2  0  0  0  0
  5 10  2  0  0  0  0
  5  6  1  0  0  0  0
  6  2  1  0  0  0  0
  6 11  2  0  0  0  0
  7  3  1  0  0  0  0
  7 30  1  0  0  0  0
  7  9  2  0  0  0  0
  8  4  1  0  0  0  0
 12  9  1  0  0  0  0
 12  8  2  0  0  0  0
 12 18  1  0  0  0  0
 13 10  1  0  0  0  0
 14 13  2  0  0  0  0
 14 11  1  0  0  0  0
 15  9  1  0  0  0  0
 15 16  1  0  0  0  0
 15 17  1  0  0  0  0
 19 18  1  0  0  0  0
 20 18  1  0  0  0  0
 21 14  1  0  0  0  0
 22 21  1  0  0  0  0
 23 21  1  0  0  0  0
 24 13  1  0  0  0  0
 24 26  1  0  0  0  0
 25 24  1  0  0  0  0
 27 10  1  0  0  0  0
 27 29  1  0  0  0  0
 28 27  1  0  0  0  0
 31  8  1  0  0  0  0
 32 11  1  0  0  0  0
 32 33  1  0  0  0  0
 34 32  1  0  0  0  0
M  END
