NH2_R1236_anion
 OpenBabel03162120083D

 30 32  0  0  0  0  0  0  0  0999 V2000
    0.4074   -1.5158    0.0165 N   0  0  0  0  0  0  0  0  0  0  0  0
    0.8436    1.3311   -0.0138 N   0  0  0  0  0  0  0  0  0  0  0  0
   -2.1652   -2.5290   -0.0379 N   0  0  0  0  0  0  0  0  0  0  0  0
   -0.6229   -0.6208    0.0084 C   0  0  0  0  0  0  0  0  0  0  0  0
   -0.4153    0.8037   -0.0027 C   0  0  0  0  0  0  0  0  0  0  0  0
    1.6659   -0.9900    0.0004 C   0  0  0  0  0  0  0  0  0  0  0  0
    1.8736    0.4355   -0.0229 C   0  0  0  0  0  0  0  0  0  0  0  0
   -1.9534   -1.1202    0.0132 C   0  0  0  0  0  0  0  0  0  0  0  0
   -1.5471    1.6528    0.0312 C   0  0  0  0  0  0  0  0  0  0  0  0
   -3.0499   -0.2564   -0.0151 C   0  0  0  0  0  0  0  0  0  0  0  0
    2.7970   -1.8468    0.0259 C   0  0  0  0  0  0  0  0  0  0  0  0
    3.2083    0.9427   -0.0354 C   0  0  0  0  0  0  0  0  0  0  0  0
   -2.8420    1.1386    0.0305 C   0  0  0  0  0  0  0  0  0  0  0  0
    4.0851   -1.3222    0.0255 C   0  0  0  0  0  0  0  0  0  0  0  0
    4.2975    0.0694   -0.0114 C   0  0  0  0  0  0  0  0  0  0  0  0
    2.6211   -2.9192    0.0480 H   0  0  0  0  0  0  0  0  0  0  0  0
    4.9427   -1.9922    0.0449 H   0  0  0  0  0  0  0  0  0  0  0  0
    5.3086    0.4722   -0.0380 H   0  0  0  0  0  0  0  0  0  0  0  0
   -1.2444   -2.9693   -0.0395 H   0  0  0  0  0  0  0  0  0  0  0  0
   -2.6837   -2.8617    0.7729 H   0  0  0  0  0  0  0  0  0  0  0  0
   -4.3750   -0.7814   -0.0474 N   0  0  0  0  0  0  0  0  0  0  0  0
   -4.3677   -1.6991   -0.4880 H   0  0  0  0  0  0  0  0  0  0  0  0
   -4.9870   -0.1599   -0.5713 H   0  0  0  0  0  0  0  0  0  0  0  0
   -4.0016    1.9826   -0.0046 N   0  0  0  0  0  0  0  0  0  0  0  0
   -3.7353    2.9615    0.0129 H   0  0  0  0  0  0  0  0  0  0  0  0
   -4.6197    1.8040    0.7849 H   0  0  0  0  0  0  0  0  0  0  0  0
   -1.3786    2.7278    0.0597 H   0  0  0  0  0  0  0  0  0  0  0  0
    3.3727    2.3436   -0.1156 N   0  0  0  0  0  0  0  0  0  0  0  0
    2.4810    2.7998    0.0659 H   0  0  0  0  0  0  0  0  0  0  0  0
    4.1094    2.6996    0.4820 H   0  0  0  0  0  0  0  0  0  0  0  0
  2  5  1  0  0  0  0
  3  8  1  0  0  0  0
  3 20  1  0  0  0  0
  4  8  1  0  0  0  0
  4  1  1  0  0  0  0
  5  4  2  0  0  0  0
  5  9  1  0  0  0  0
  6  1  2  0  0  0  0
  6 11  1  0  0  0  0
  7  2  2  0  0  0  0
  7  6  1  0  0  0  0
  9 27  1  0  0  0  0
 10  8  2  0  0  0  0
 10 13  1  0  0  0  0
 11 16  1  0  0  0  0
 12  7  1  0  0  0  0
 12 15  2  0  0  0  0
 13  9  2  0  0  0  0
 14 11  2  0  0  0  0
 14 17  1  0  0  0  0
 15 14  1  0  0  0  0
 18 15  1  0  0  0  0
 19  3  1  0  0  0  0
 21 10  1  0  0  0  0
 22 21  1  0  0  0  0
 23 21  1  0  0  0  0
 24 25  1  0  0  0  0
 24 13  1  0  0  0  0
 24 26  1  0  0  0  0
 28 12  1  0  0  0  0
 28 29  1  0  0  0  0
 28 30  1  0  0  0  0
M  END
