NH2_R13_anion
 OpenBabel03162103393D

 26 28  0  0  0  0  0  0  0  0999 V2000
   -0.5541    1.3234   -0.0023 N   0  0  0  0  0  0  0  0  0  0  0  0
   -0.4998   -1.5562   -0.0222 N   0  0  0  0  0  0  0  0  0  0  0  0
    1.7820    2.7373   -0.0879 N   0  0  0  0  0  0  0  0  0  0  0  0
    0.6144    0.6144   -0.0277 C   0  0  0  0  0  0  0  0  0  0  0  0
    0.6456   -0.8245   -0.0278 C   0  0  0  0  0  0  0  0  0  0  0  0
   -1.7003    0.5923    0.0043 C   0  0  0  0  0  0  0  0  0  0  0  0
   -1.6702   -0.8570   -0.0118 C   0  0  0  0  0  0  0  0  0  0  0  0
    1.8449    1.3308   -0.0288 C   0  0  0  0  0  0  0  0  0  0  0  0
    1.9034   -1.4840   -0.0112 C   0  0  0  0  0  0  0  0  0  0  0  0
    3.0661    0.6514   -0.0149 C   0  0  0  0  0  0  0  0  0  0  0  0
   -2.9597    1.2451    0.0267 C   0  0  0  0  0  0  0  0  0  0  0  0
   -2.9041   -1.5544   -0.0082 C   0  0  0  0  0  0  0  0  0  0  0  0
    3.0900   -0.7593    0.0003 C   0  0  0  0  0  0  0  0  0  0  0  0
   -4.1534    0.5256    0.0305 C   0  0  0  0  0  0  0  0  0  0  0  0
   -4.1255   -0.8815    0.0120 C   0  0  0  0  0  0  0  0  0  0  0  0
    1.9070   -2.5717   -0.0053 H   0  0  0  0  0  0  0  0  0  0  0  0
   -2.9585    2.3328    0.0383 H   0  0  0  0  0  0  0  0  0  0  0  0
   -2.8604   -2.6410   -0.0206 H   0  0  0  0  0  0  0  0  0  0  0  0
   -5.1052    1.0532    0.0464 H   0  0  0  0  0  0  0  0  0  0  0  0
   -5.0560   -1.4460    0.0141 H   0  0  0  0  0  0  0  0  0  0  0  0
    0.8302    3.0455    0.0990 H   0  0  0  0  0  0  0  0  0  0  0  0
    2.4603    3.2042    0.5018 H   0  0  0  0  0  0  0  0  0  0  0  0
    3.9986    1.2119   -0.0590 H   0  0  0  0  0  0  0  0  0  0  0  0
    4.3471   -1.4293   -0.0384 N   0  0  0  0  0  0  0  0  0  0  0  0
    4.2833   -2.3794    0.3095 H   0  0  0  0  0  0  0  0  0  0  0  0
    5.0684   -0.9298    0.4701 H   0  0  0  0  0  0  0  0  0  0  0  0
  1  6  1  0  0  0  0
  2  7  1  0  0  0  0
  3  8  1  0  0  0  0
  3 21  1  0  0  0  0
  3 22  1  0  0  0  0
  4  1  2  0  0  0  0
  5  4  1  0  0  0  0
  5  2  2  0  0  0  0
  5  9  1  0  0  0  0
  6 11  1  0  0  0  0
  7 12  1  0  0  0  0
  7  6  2  0  0  0  0
  8  4  1  0  0  0  0
  8 10  2  0  0  0  0
  9 16  1  0  0  0  0
  9 13  2  0  0  0  0
 10 13  1  0  0  0  0
 11 14  2  0  0  0  0
 11 17  1  0  0  0  0
 12 15  2  0  0  0  0
 14 19  1  0  0  0  0
 15 20  1  0  0  0  0
 15 14  1  0  0  0  0
 18 12  1  0  0  0  0
 23 10  1  0  0  0  0
 24 13  1  0  0  0  0
 24 25  1  0  0  0  0
 24 26  1  0  0  0  0
M  END
