NH2_R1239_anion
 OpenBabel02212111253D

 30 32  0  0  0  0  0  0  0  0999 V2000
   -0.6736    1.0340    0.0233 N   0  0  0  0  0  0  0  0  0  0  0  0
   -0.5594   -1.8458   -0.0080 N   0  0  0  0  0  0  0  0  0  0  0  0
    1.6759    2.5218   -0.0207 N   0  0  0  0  0  0  0  0  0  0  0  0
    0.5123    0.3575    0.0143 C   0  0  0  0  0  0  0  0  0  0  0  0
    0.5712   -1.0814   -0.0004 C   0  0  0  0  0  0  0  0  0  0  0  0
   -1.8025    0.2639    0.0191 C   0  0  0  0  0  0  0  0  0  0  0  0
   -1.7463   -1.1763   -0.0012 C   0  0  0  0  0  0  0  0  0  0  0  0
    1.7251    1.0966    0.0177 C   0  0  0  0  0  0  0  0  0  0  0  0
    1.8435   -1.7026    0.0222 C   0  0  0  0  0  0  0  0  0  0  0  0
    2.9637    0.4528   -0.0197 C   0  0  0  0  0  0  0  0  0  0  0  0
   -3.0728    0.9113    0.0203 C   0  0  0  0  0  0  0  0  0  0  0  0
   -2.9655   -1.9054   -0.0274 C   0  0  0  0  0  0  0  0  0  0  0  0
    3.0195   -0.9565    0.0186 C   0  0  0  0  0  0  0  0  0  0  0  0
   -4.2502    0.1606   -0.0051 C   0  0  0  0  0  0  0  0  0  0  0  0
   -4.1890   -1.2460   -0.0341 C   0  0  0  0  0  0  0  0  0  0  0  0
   -2.9033   -2.9902   -0.0456 H   0  0  0  0  0  0  0  0  0  0  0  0
   -5.2118    0.6708    0.0123 H   0  0  0  0  0  0  0  0  0  0  0  0
   -5.1138   -1.8195   -0.0552 H   0  0  0  0  0  0  0  0  0  0  0  0
    0.6930    2.7904   -0.0023 H   0  0  0  0  0  0  0  0  0  0  0  0
    2.1390    2.9346    0.7869 H   0  0  0  0  0  0  0  0  0  0  0  0
    4.1674    1.2163   -0.0522 N   0  0  0  0  0  0  0  0  0  0  0  0
    3.9926    2.1143   -0.4983 H   0  0  0  0  0  0  0  0  0  0  0  0
    4.8864    0.7157   -0.5696 H   0  0  0  0  0  0  0  0  0  0  0  0
    4.3161   -1.5695   -0.0251 N   0  0  0  0  0  0  0  0  0  0  0  0
    4.2350   -2.5809   -0.0225 H   0  0  0  0  0  0  0  0  0  0  0  0
    4.8892   -1.2926    0.7699 H   0  0  0  0  0  0  0  0  0  0  0  0
    1.8762   -2.7900    0.0478 H   0  0  0  0  0  0  0  0  0  0  0  0
   -3.0934    2.3241    0.0898 N   0  0  0  0  0  0  0  0  0  0  0  0
   -2.1674    2.6894   -0.1159 H   0  0  0  0  0  0  0  0  0  0  0  0
   -3.7997    2.7437   -0.5035 H   0  0  0  0  0  0  0  0  0  0  0  0
  2  7  1  0  0  0  0
  2  5  2  0  0  0  0
  3 19  1  0  0  0  0
  3  8  1  0  0  0  0
  3 20  1  0  0  0  0
  4  8  1  0  0  0  0
  4  1  2  0  0  0  0
  5  4  1  0  0  0  0
  5  9  1  0  0  0  0
  6 11  1  0  0  0  0
  6  1  1  0  0  0  0
  7  6  2  0  0  0  0
  9 27  1  0  0  0  0
 10  8  2  0  0  0  0
 10 13  1  0  0  0  0
 11 28  1  0  0  0  0
 12  7  1  0  0  0  0
 13  9  2  0  0  0  0
 14 17  1  0  0  0  0
 14 11  2  0  0  0  0
 15 12  2  0  0  0  0
 15 14  1  0  0  0  0
 16 12  1  0  0  0  0
 18 15  1  0  0  0  0
 21 10  1  0  0  0  0
 22 21  1  0  0  0  0
 23 21  1  0  0  0  0
 24 25  1  0  0  0  0
 24 13  1  0  0  0  0
 24 26  1  0  0  0  0
 29 28  1  0  0  0  0
 30 28  1  0  0  0  0
M  END
