NH2_R129_anion
 OpenBabel02222114233D

 28 30  0  0  0  0  0  0  0  0999 V2000
   -0.2702    0.9489    0.0144 N   0  0  0  0  0  0  0  0  0  0  0  0
   -0.4717   -1.9252    0.0091 N   0  0  0  0  0  0  0  0  0  0  0  0
    2.2155    2.1838   -0.0209 N   0  0  0  0  0  0  0  0  0  0  0  0
    0.8338    0.1512    0.0124 C   0  0  0  0  0  0  0  0  0  0  0  0
    0.7379   -1.2874    0.0112 C   0  0  0  0  0  0  0  0  0  0  0  0
   -1.4773    0.3056    0.0168 C   0  0  0  0  0  0  0  0  0  0  0  0
   -1.5775   -1.1320    0.0096 C   0  0  0  0  0  0  0  0  0  0  0  0
    2.1183    0.7625    0.0149 C   0  0  0  0  0  0  0  0  0  0  0  0
    1.9357   -2.0393    0.0185 C   0  0  0  0  0  0  0  0  0  0  0  0
    3.2798   -0.0117   -0.0086 C   0  0  0  0  0  0  0  0  0  0  0  0
   -2.6685    1.0879    0.0096 C   0  0  0  0  0  0  0  0  0  0  0  0
   -2.8697   -1.7248   -0.0110 C   0  0  0  0  0  0  0  0  0  0  0  0
    3.1827   -1.4163    0.0071 C   0  0  0  0  0  0  0  0  0  0  0  0
   -3.9206    0.4696   -0.0104 C   0  0  0  0  0  0  0  0  0  0  0  0
   -4.0128   -0.9358   -0.0255 C   0  0  0  0  0  0  0  0  0  0  0  0
    1.8521   -3.1227    0.0244 H   0  0  0  0  0  0  0  0  0  0  0  0
   -2.9261   -2.8100   -0.0187 H   0  0  0  0  0  0  0  0  0  0  0  0
   -4.8210    1.0813    0.0005 H   0  0  0  0  0  0  0  0  0  0  0  0
   -4.9949   -1.4047   -0.0423 H   0  0  0  0  0  0  0  0  0  0  0  0
    1.2706    2.5584    0.0439 H   0  0  0  0  0  0  0  0  0  0  0  0
    2.7705    2.5398    0.7548 H   0  0  0  0  0  0  0  0  0  0  0  0
    4.5408    0.6548    0.0071 N   0  0  0  0  0  0  0  0  0  0  0  0
    4.5079    1.5005   -0.5583 H   0  0  0  0  0  0  0  0  0  0  0  0
    5.2882    0.0541   -0.3236 H   0  0  0  0  0  0  0  0  0  0  0  0
    4.0936   -2.0137    0.0047 H   0  0  0  0  0  0  0  0  0  0  0  0
   -2.5349    2.4947    0.0648 N   0  0  0  0  0  0  0  0  0  0  0  0
   -1.5753    2.7559   -0.1451 H   0  0  0  0  0  0  0  0  0  0  0  0
   -3.1937    2.9839   -0.5296 H   0  0  0  0  0  0  0  0  0  0  0  0
  1  6  1  0  0  0  0
  2  7  1  0  0  0  0
  2  5  2  0  0  0  0
  3  8  1  0  0  0  0
  3 20  1  0  0  0  0
  3 21  1  0  0  0  0
  4  1  2  0  0  0  0
  4  8  1  0  0  0  0
  5  4  1  0  0  0  0
  5  9  1  0  0  0  0
  7  6  1  0  0  0  0
  9 16  1  0  0  0  0
 10 13  1  0  0  0  0
 10 22  1  0  0  0  0
 10  8  2  0  0  0  0
 11  6  2  0  0  0  0
 11 26  1  0  0  0  0
 12  7  2  0  0  0  0
 13  9  2  0  0  0  0
 14 18  1  0  0  0  0
 14 11  1  0  0  0  0
 15 12  1  0  0  0  0
 15 14  2  0  0  0  0
 17 12  1  0  0  0  0
 19 15  1  0  0  0  0
 23 22  1  0  0  0  0
 24 22  1  0  0  0  0
 25 13  1  0  0  0  0
 27 26  1  0  0  0  0
 28 26  1  0  0  0  0
M  END
