NH2_R1248_anion
 OpenBabel02252114183D

 30 32  0  0  0  0  0  0  0  0999 V2000
    0.3039   -1.2372    0.0395 N   0  0  0  0  0  0  0  0  0  0  0  0
    0.2748    1.6419    0.0082 N   0  0  0  0  0  0  0  0  0  0  0  0
    1.4545   -0.5134    0.0234 C   0  0  0  0  0  0  0  0  0  0  0  0
    1.4425    0.9368    0.0062 C   0  0  0  0  0  0  0  0  0  0  0  0
   -0.8626   -0.5286    0.0425 C   0  0  0  0  0  0  0  0  0  0  0  0
   -0.8764    0.9057    0.0302 C   0  0  0  0  0  0  0  0  0  0  0  0
    2.7051   -1.1798    0.0166 C   0  0  0  0  0  0  0  0  0  0  0  0
    2.6835    1.6125   -0.0171 C   0  0  0  0  0  0  0  0  0  0  0  0
    3.9122   -0.4810   -0.0072 C   0  0  0  0  0  0  0  0  0  0  0  0
   -2.0927   -1.2411    0.0255 C   0  0  0  0  0  0  0  0  0  0  0  0
   -2.1282    1.5854    0.0317 C   0  0  0  0  0  0  0  0  0  0  0  0
    3.9004    0.9267   -0.0225 C   0  0  0  0  0  0  0  0  0  0  0  0
   -3.3014   -0.5498   -0.0187 C   0  0  0  0  0  0  0  0  0  0  0  0
   -3.3199    0.8614    0.0086 C   0  0  0  0  0  0  0  0  0  0  0  0
   -4.2737    1.3867    0.0360 H   0  0  0  0  0  0  0  0  0  0  0  0
   -2.1131    2.9986    0.0959 N   0  0  0  0  0  0  0  0  0  0  0  0
   -1.1651    3.3289   -0.0738 H   0  0  0  0  0  0  0  0  0  0  0  0
   -2.7757    3.4358   -0.5345 H   0  0  0  0  0  0  0  0  0  0  0  0
   -2.0848   -2.6740   -0.0280 N   0  0  0  0  0  0  0  0  0  0  0  0
   -1.1063   -2.9573   -0.0888 H   0  0  0  0  0  0  0  0  0  0  0  0
   -2.4656   -3.0737    0.8290 H   0  0  0  0  0  0  0  0  0  0  0  0
    2.6620    2.6997   -0.0298 H   0  0  0  0  0  0  0  0  0  0  0  0
    2.6938   -2.2683    0.0329 H   0  0  0  0  0  0  0  0  0  0  0  0
    5.1536   -1.1824    0.0427 N   0  0  0  0  0  0  0  0  0  0  0  0
    5.0762   -2.1222   -0.3306 H   0  0  0  0  0  0  0  0  0  0  0  0
    5.8938   -0.6884   -0.4438 H   0  0  0  0  0  0  0  0  0  0  0  0
   -4.5122   -1.2964   -0.0313 N   0  0  0  0  0  0  0  0  0  0  0  0
   -5.2691   -0.7895   -0.4771 H   0  0  0  0  0  0  0  0  0  0  0  0
   -4.3678   -2.1904   -0.4956 H   0  0  0  0  0  0  0  0  0  0  0  0
    4.8401    1.4768   -0.0276 H   0  0  0  0  0  0  0  0  0  0  0  0
  1  5  1  0  0  0  0
  2  6  1  0  0  0  0
  3  1  2  0  0  0  0
  4  2  2  0  0  0  0
  4  3  1  0  0  0  0
  6 11  2  0  0  0  0
  6  5  1  0  0  0  0
  7  3  1  0  0  0  0
  7 23  1  0  0  0  0
  8  4  1  0  0  0  0
  9  7  2  0  0  0  0
  9 24  1  0  0  0  0
 10  5  2  0  0  0  0
 11 16  1  0  0  0  0
 12  8  2  0  0  0  0
 12  9  1  0  0  0  0
 13 14  2  0  0  0  0
 13 10  1  0  0  0  0
 14 11  1  0  0  0  0
 14 15  1  0  0  0  0
 17 16  1  0  0  0  0
 18 16  1  0  0  0  0
 19 10  1  0  0  0  0
 19 21  1  0  0  0  0
 20 19  1  0  0  0  0
 22  8  1  0  0  0  0
 25 24  1  0  0  0  0
 26 24  1  0  0  0  0
 27 13  1  0  0  0  0
 28 27  1  0  0  0  0
 29 27  1  0  0  0  0
 30 12  1  0  0  0  0
M  END
