NH2_R137_anion
 OpenBabel03162120083D

 28 30  0  0  0  0  0  0  0  0999 V2000
   -0.0525    1.4547   -0.0072 N   0  0  0  0  0  0  0  0  0  0  0  0
   -0.2586   -1.4192   -0.0116 N   0  0  0  0  0  0  0  0  0  0  0  0
    2.4028    2.6545   -0.0756 N   0  0  0  0  0  0  0  0  0  0  0  0
    1.0466    0.6449   -0.0162 C   0  0  0  0  0  0  0  0  0  0  0  0
    0.9494   -0.7910   -0.0089 C   0  0  0  0  0  0  0  0  0  0  0  0
   -1.2620    0.8250   -0.0089 C   0  0  0  0  0  0  0  0  0  0  0  0
   -1.3592   -0.6216   -0.0163 C   0  0  0  0  0  0  0  0  0  0  0  0
    2.3376    1.2473   -0.0129 C   0  0  0  0  0  0  0  0  0  0  0  0
    2.1418   -1.5598    0.0091 C   0  0  0  0  0  0  0  0  0  0  0  0
    3.4926    0.4608    0.0087 C   0  0  0  0  0  0  0  0  0  0  0  0
   -2.4592    1.5757   -0.0014 C   0  0  0  0  0  0  0  0  0  0  0  0
   -2.6489   -1.2107   -0.0163 C   0  0  0  0  0  0  0  0  0  0  0  0
    3.3901   -0.9452    0.0228 C   0  0  0  0  0  0  0  0  0  0  0  0
   -3.7153    0.9644   -0.0021 C   0  0  0  0  0  0  0  0  0  0  0  0
   -3.8113   -0.4404   -0.0080 C   0  0  0  0  0  0  0  0  0  0  0  0
    2.0476   -2.6436    0.0188 H   0  0  0  0  0  0  0  0  0  0  0  0
   -2.3720    2.6598    0.0042 H   0  0  0  0  0  0  0  0  0  0  0  0
   -2.7014   -2.2980   -0.0235 H   0  0  0  0  0  0  0  0  0  0  0  0
   -4.6204    1.5699   -0.0096 H   0  0  0  0  0  0  0  0  0  0  0  0
    1.4798    3.0449    0.1027 H   0  0  0  0  0  0  0  0  0  0  0  0
    3.1104    3.0571    0.5274 H   0  0  0  0  0  0  0  0  0  0  0  0
    4.5806   -1.7270    0.0990 N   0  0  0  0  0  0  0  0  0  0  0  0
    4.4370   -2.6686   -0.2489 H   0  0  0  0  0  0  0  0  0  0  0  0
    5.3543   -1.2997   -0.3986 H   0  0  0  0  0  0  0  0  0  0  0  0
    4.4724    0.9367    0.0057 H   0  0  0  0  0  0  0  0  0  0  0  0
   -5.0930   -1.0658   -0.0630 N   0  0  0  0  0  0  0  0  0  0  0  0
   -5.0726   -2.0080    0.3116 H   0  0  0  0  0  0  0  0  0  0  0  0
   -5.8034   -0.5282    0.4216 H   0  0  0  0  0  0  0  0  0  0  0  0
  2  5  2  0  0  0  0
  3  8  1  0  0  0  0
  3 20  1  0  0  0  0
  3 21  1  0  0  0  0
  4  8  1  0  0  0  0
  4  5  1  0  0  0  0
  4  1  2  0  0  0  0
  5  9  1  0  0  0  0
  6  1  1  0  0  0  0
  6 11  1  0  0  0  0
  7  2  1  0  0  0  0
  7  6  2  0  0  0  0
  8 10  2  0  0  0  0
  9 16  1  0  0  0  0
  9 13  2  0  0  0  0
 10 13  1  0  0  0  0
 11 17  1  0  0  0  0
 12  7  1  0  0  0  0
 12 15  2  0  0  0  0
 13 22  1  0  0  0  0
 14 11  2  0  0  0  0
 15 14  1  0  0  0  0
 18 12  1  0  0  0  0
 19 14  1  0  0  0  0
 23 22  1  0  0  0  0
 24 22  1  0  0  0  0
 25 10  1  0  0  0  0
 26 15  1  0  0  0  0
 26 27  1  0  0  0  0
 26 28  1  0  0  0  0
M  END
