NH2_R236_anion
 OpenBabel02222114233D

 28 30  0  0  0  0  0  0  0  0999 V2000
   -0.6266    1.1865   -0.0195 N   0  0  0  0  0  0  0  0  0  0  0  0
   -0.3747   -1.6832    0.0140 N   0  0  0  0  0  0  0  0  0  0  0  0
    0.5909    0.5778   -0.0070 C   0  0  0  0  0  0  0  0  0  0  0  0
    0.7134   -0.8653    0.0029 C   0  0  0  0  0  0  0  0  0  0  0  0
   -1.7135    0.3614   -0.0227 C   0  0  0  0  0  0  0  0  0  0  0  0
   -1.5936   -1.0734    0.0036 C   0  0  0  0  0  0  0  0  0  0  0  0
    1.7738    1.3543    0.0071 C   0  0  0  0  0  0  0  0  0  0  0  0
    2.0143   -1.4244   -0.0045 C   0  0  0  0  0  0  0  0  0  0  0  0
    3.0408    0.7725    0.0161 C   0  0  0  0  0  0  0  0  0  0  0  0
   -3.0125    0.9530   -0.0320 C   0  0  0  0  0  0  0  0  0  0  0  0
   -2.7777   -1.8574    0.0335 C   0  0  0  0  0  0  0  0  0  0  0  0
    3.1620   -0.6334   -0.0099 C   0  0  0  0  0  0  0  0  0  0  0  0
   -4.1541    0.1502   -0.0030 C   0  0  0  0  0  0  0  0  0  0  0  0
   -4.0292   -1.2526    0.0359 C   0  0  0  0  0  0  0  0  0  0  0  0
    2.0934   -2.5101   -0.0138 H   0  0  0  0  0  0  0  0  0  0  0  0
   -2.6674   -2.9383    0.0574 H   0  0  0  0  0  0  0  0  0  0  0  0
   -5.1382    0.6153   -0.0269 H   0  0  0  0  0  0  0  0  0  0  0  0
    4.2394    1.5525   -0.0147 N   0  0  0  0  0  0  0  0  0  0  0  0
    4.0415    2.5350    0.1426 H   0  0  0  0  0  0  0  0  0  0  0  0
    4.9056    1.2327    0.6855 H   0  0  0  0  0  0  0  0  0  0  0  0
    4.4765   -1.1960    0.0238 N   0  0  0  0  0  0  0  0  0  0  0  0
    4.4505   -2.1968   -0.1402 H   0  0  0  0  0  0  0  0  0  0  0  0
    5.0809   -0.7620   -0.6709 H   0  0  0  0  0  0  0  0  0  0  0  0
    1.6662    2.4378    0.0160 H   0  0  0  0  0  0  0  0  0  0  0  0
   -4.9277   -1.8666    0.0597 H   0  0  0  0  0  0  0  0  0  0  0  0
   -3.0890    2.3618   -0.1151 N   0  0  0  0  0  0  0  0  0  0  0  0
   -2.1706    2.7617    0.0654 H   0  0  0  0  0  0  0  0  0  0  0  0
   -3.8006    2.7635    0.4840 H   0  0  0  0  0  0  0  0  0  0  0  0
  1  3  1  0  0  0  0
  3  4  2  0  0  0  0
  3  7  1  0  0  0  0
  4  2  1  0  0  0  0
  5  1  2  0  0  0  0
  5  6  1  0  0  0  0
  6  2  2  0  0  0  0
  6 11  1  0  0  0  0
  7 24  1  0  0  0  0
  7  9  2  0  0  0  0
  8  4  1  0  0  0  0
 10  5  1  0  0  0  0
 10 13  2  0  0  0  0
 11 14  2  0  0  0  0
 11 16  1  0  0  0  0
 12  8  2  0  0  0  0
 12  9  1  0  0  0  0
 12 21  1  0  0  0  0
 13 14  1  0  0  0  0
 14 25  1  0  0  0  0
 15  8  1  0  0  0  0
 17 13  1  0  0  0  0
 18  9  1  0  0  0  0
 18 19  1  0  0  0  0
 18 20  1  0  0  0  0
 22 21  1  0  0  0  0
 23 21  1  0  0  0  0
 26 10  1  0  0  0  0
 26 27  1  0  0  0  0
 26 28  1  0  0  0  0
M  END
