NH2_R138_anion
 OpenBabel02222114233D

 28 30  0  0  0  0  0  0  0  0999 V2000
    0.2648    1.2164   -0.0033 N   0  0  0  0  0  0  0  0  0  0  0  0
    0.0104   -1.6525   -0.0027 N   0  0  0  0  0  0  0  0  0  0  0  0
   -1.9713    2.7865    0.0809 N   0  0  0  0  0  0  0  0  0  0  0  0
   -0.9515    0.5877    0.0109 C   0  0  0  0  0  0  0  0  0  0  0  0
   -1.0805   -0.8459    0.0019 C   0  0  0  0  0  0  0  0  0  0  0  0
    1.3555    0.4128   -0.0093 C   0  0  0  0  0  0  0  0  0  0  0  0
    1.2283   -1.0314   -0.0036 C   0  0  0  0  0  0  0  0  0  0  0  0
   -2.1289    1.3858    0.0171 C   0  0  0  0  0  0  0  0  0  0  0  0
   -2.3827   -1.4178   -0.0077 C   0  0  0  0  0  0  0  0  0  0  0  0
   -3.3942    0.7922    0.0027 C   0  0  0  0  0  0  0  0  0  0  0  0
    2.6562    0.9830   -0.0136 C   0  0  0  0  0  0  0  0  0  0  0  0
    2.4130   -1.8002   -0.0034 C   0  0  0  0  0  0  0  0  0  0  0  0
   -3.5156   -0.6137   -0.0127 C   0  0  0  0  0  0  0  0  0  0  0  0
    3.8028    0.1925   -0.0112 C   0  0  0  0  0  0  0  0  0  0  0  0
    3.6798   -1.2112   -0.0083 C   0  0  0  0  0  0  0  0  0  0  0  0
   -2.4608   -2.5028   -0.0181 H   0  0  0  0  0  0  0  0  0  0  0  0
    2.7287    2.0693   -0.0186 H   0  0  0  0  0  0  0  0  0  0  0  0
    2.3060   -2.8823   -0.0002 H   0  0  0  0  0  0  0  0  0  0  0  0
    4.5738   -1.8328   -0.0210 H   0  0  0  0  0  0  0  0  0  0  0  0
   -0.9989    3.0255   -0.1026 H   0  0  0  0  0  0  0  0  0  0  0  0
   -2.6079    3.2948   -0.5215 H   0  0  0  0  0  0  0  0  0  0  0  0
   -4.8170   -1.1941   -0.0802 N   0  0  0  0  0  0  0  0  0  0  0  0
   -4.8220   -2.1498    0.2588 H   0  0  0  0  0  0  0  0  0  0  0  0
   -5.5061   -0.6532    0.4313 H   0  0  0  0  0  0  0  0  0  0  0  0
   -4.2863    1.4168    0.0118 H   0  0  0  0  0  0  0  0  0  0  0  0
    5.0970    0.7922   -0.0690 N   0  0  0  0  0  0  0  0  0  0  0  0
    5.7970    0.2385    0.4128 H   0  0  0  0  0  0  0  0  0  0  0  0
    5.0970    1.7331    0.3097 H   0  0  0  0  0  0  0  0  0  0  0  0
  1  4  1  0  0  0  0
  2  5  1  0  0  0  0
  4  8  1  0  0  0  0
  5  4  2  0  0  0  0
  6  7  1  0  0  0  0
  6  1  2  0  0  0  0
  7 12  1  0  0  0  0
  7  2  2  0  0  0  0
  8  3  1  0  0  0  0
  9  5  1  0  0  0  0
 10 25  1  0  0  0  0
 10  8  2  0  0  0  0
 11 14  2  0  0  0  0
 11  6  1  0  0  0  0
 12 18  1  0  0  0  0
 13  9  2  0  0  0  0
 13 10  1  0  0  0  0
 14 15  1  0  0  0  0
 15 12  2  0  0  0  0
 16  9  1  0  0  0  0
 17 11  1  0  0  0  0
 19 15  1  0  0  0  0
 20  3  1  0  0  0  0
 21  3  1  0  0  0  0
 22 13  1  0  0  0  0
 22 23  1  0  0  0  0
 22 24  1  0  0  0  0
 26 14  1  0  0  0  0
 26 28  1  0  0  0  0
 26 27  1  0  0  0  0
M  END
