NH2_R1237_anion
 OpenBabel02222114233D

 30 32  0  0  0  0  0  0  0  0999 V2000
   -0.2996    1.3916    0.0193 N   0  0  0  0  0  0  0  0  0  0  0  0
   -0.6406   -1.4713   -0.0196 N   0  0  0  0  0  0  0  0  0  0  0  0
    2.2393    2.4966   -0.0225 N   0  0  0  0  0  0  0  0  0  0  0  0
    0.7599    0.5364    0.0117 C   0  0  0  0  0  0  0  0  0  0  0  0
    0.5981   -0.8939   -0.0081 C   0  0  0  0  0  0  0  0  0  0  0  0
   -1.5378    0.8156    0.0013 C   0  0  0  0  0  0  0  0  0  0  0  0
   -1.7008   -0.6261   -0.0182 C   0  0  0  0  0  0  0  0  0  0  0  0
    2.0745    1.0809    0.0201 C   0  0  0  0  0  0  0  0  0  0  0  0
    1.7577   -1.7041    0.0184 C   0  0  0  0  0  0  0  0  0  0  0  0
    3.1976    0.2543   -0.0121 C   0  0  0  0  0  0  0  0  0  0  0  0
   -2.6990    1.6189    0.0077 C   0  0  0  0  0  0  0  0  0  0  0  0
   -3.0188   -1.1556   -0.0268 C   0  0  0  0  0  0  0  0  0  0  0  0
    3.0349   -1.1477    0.0224 C   0  0  0  0  0  0  0  0  0  0  0  0
   -3.9824    1.0662   -0.0045 C   0  0  0  0  0  0  0  0  0  0  0  0
   -4.1432   -0.3333   -0.0194 C   0  0  0  0  0  0  0  0  0  0  0  0
   -2.5631    2.6979    0.0222 H   0  0  0  0  0  0  0  0  0  0  0  0
   -3.1210   -2.2393   -0.0421 H   0  0  0  0  0  0  0  0  0  0  0  0
   -4.8584    1.7130   -0.0141 H   0  0  0  0  0  0  0  0  0  0  0  0
    1.3047    2.9064   -0.0235 H   0  0  0  0  0  0  0  0  0  0  0  0
    2.7448    2.8414    0.7915 H   0  0  0  0  0  0  0  0  0  0  0  0
    4.5059    0.8217   -0.0384 N   0  0  0  0  0  0  0  0  0  0  0  0
    4.4704    1.7403   -0.4758 H   0  0  0  0  0  0  0  0  0  0  0  0
    5.1377    0.2218   -0.5639 H   0  0  0  0  0  0  0  0  0  0  0  0
    4.2221   -1.9532   -0.0172 N   0  0  0  0  0  0  0  0  0  0  0  0
    3.9860   -2.9400   -0.0115 H   0  0  0  0  0  0  0  0  0  0  0  0
    4.8294   -1.7649    0.7784 H   0  0  0  0  0  0  0  0  0  0  0  0
    1.6230   -2.7839    0.0405 H   0  0  0  0  0  0  0  0  0  0  0  0
   -5.4532   -0.8971   -0.0848 N   0  0  0  0  0  0  0  0  0  0  0  0
   -5.4765   -1.8449    0.2755 H   0  0  0  0  0  0  0  0  0  0  0  0
   -6.1375   -0.3348    0.4094 H   0  0  0  0  0  0  0  0  0  0  0  0
  2  7  2  0  0  0  0
  2  5  1  0  0  0  0
  3  8  1  0  0  0  0
  3 20  1  0  0  0  0
  4  1  1  0  0  0  0
  4  8  1  0  0  0  0
  5  4  2  0  0  0  0
  5  9  1  0  0  0  0
  6 11  1  0  0  0  0
  6  1  2  0  0  0  0
  7  6  1  0  0  0  0
  9 13  2  0  0  0  0
  9 27  1  0  0  0  0
 10  8  2  0  0  0  0
 10 13  1  0  0  0  0
 11 16  1  0  0  0  0
 12 15  2  0  0  0  0
 12  7  1  0  0  0  0
 14 11  2  0  0  0  0
 15 14  1  0  0  0  0
 17 12  1  0  0  0  0
 18 14  1  0  0  0  0
 19  3  1  0  0  0  0
 21 10  1  0  0  0  0
 22 21  1  0  0  0  0
 23 21  1  0  0  0  0
 24 25  1  0  0  0  0
 24 13  1  0  0  0  0
 24 26  1  0  0  0  0
 28 15  1  0  0  0  0
 28 29  1  0  0  0  0
 28 30  1  0  0  0  0
M  END
