NH2_R1269_anion
 OpenBabel02212111253D

 30 32  0  0  0  0  0  0  0  0999 V2000
    0.0512    1.1605    0.0026 N   0  0  0  0  0  0  0  0  0  0  0  0
   -0.4908   -1.6652    0.0062 N   0  0  0  0  0  0  0  0  0  0  0  0
    2.6632    2.0896   -0.0326 N   0  0  0  0  0  0  0  0  0  0  0  0
    1.0514    0.2357    0.0051 C   0  0  0  0  0  0  0  0  0  0  0  0
    0.7890   -1.1821    0.0103 C   0  0  0  0  0  0  0  0  0  0  0  0
   -1.2276    0.6714    0.0028 C   0  0  0  0  0  0  0  0  0  0  0  0
   -1.4914   -0.7392   -0.0052 C   0  0  0  0  0  0  0  0  0  0  0  0
    2.3995    0.6903    0.0102 C   0  0  0  0  0  0  0  0  0  0  0  0
    1.8882   -2.0699    0.0288 C   0  0  0  0  0  0  0  0  0  0  0  0
    3.4622   -0.2155   -0.0029 C   0  0  0  0  0  0  0  0  0  0  0  0
   -2.3174    1.5892    0.0163 C   0  0  0  0  0  0  0  0  0  0  0  0
   -2.8438   -1.2005   -0.0266 C   0  0  0  0  0  0  0  0  0  0  0  0
    3.2008   -1.5985    0.0202 C   0  0  0  0  0  0  0  0  0  0  0  0
   -3.6228    1.1080    0.0136 C   0  0  0  0  0  0  0  0  0  0  0  0
   -3.8842   -0.2787   -0.0253 C   0  0  0  0  0  0  0  0  0  0  0  0
   -4.4526    1.8119    0.0430 H   0  0  0  0  0  0  0  0  0  0  0  0
   -4.9132   -0.6321   -0.0597 H   0  0  0  0  0  0  0  0  0  0  0  0
    1.7682    2.5729    0.0235 H   0  0  0  0  0  0  0  0  0  0  0  0
    3.2522    2.3836    0.7439 H   0  0  0  0  0  0  0  0  0  0  0  0
    4.7919    0.2993    0.0158 N   0  0  0  0  0  0  0  0  0  0  0  0
    4.8595    1.1415   -0.5516 H   0  0  0  0  0  0  0  0  0  0  0  0
    5.4662   -0.3850   -0.3093 H   0  0  0  0  0  0  0  0  0  0  0  0
    1.6796   -3.1365    0.0388 H   0  0  0  0  0  0  0  0  0  0  0  0
    4.0346   -2.2992    0.0252 H   0  0  0  0  0  0  0  0  0  0  0  0
   -3.0667   -2.6008   -0.0978 N   0  0  0  0  0  0  0  0  0  0  0  0
   -2.1821   -3.0798    0.0611 H   0  0  0  0  0  0  0  0  0  0  0  0
   -3.7715   -2.9203    0.5576 H   0  0  0  0  0  0  0  0  0  0  0  0
   -2.0262    2.9798    0.0798 N   0  0  0  0  0  0  0  0  0  0  0  0
   -1.0357    3.1166   -0.1061 H   0  0  0  0  0  0  0  0  0  0  0  0
   -2.5857    3.5234   -0.5685 H   0  0  0  0  0  0  0  0  0  0  0  0
  1  6  2  0  0  0  0
  1  4  1  0  0  0  0
  2  5  1  0  0  0  0
  3  8  1  0  0  0  0
  3 18  1  0  0  0  0
  3 19  1  0  0  0  0
  4  8  2  0  0  0  0
  4  5  1  0  0  0  0
  5  9  2  0  0  0  0
  6 11  1  0  0  0  0
  7  6  1  0  0  0  0
  7  2  2  0  0  0  0
  9 23  1  0  0  0  0
 10  8  1  0  0  0  0
 10 20  1  0  0  0  0
 10 13  2  0  0  0  0
 11 28  1  0  0  0  0
 12 15  2  0  0  0  0
 12  7  1  0  0  0  0
 13 24  1  0  0  0  0
 13  9  1  0  0  0  0
 14 11  2  0  0  0  0
 14 16  1  0  0  0  0
 15 14  1  0  0  0  0
 17 15  1  0  0  0  0
 21 20  1  0  0  0  0
 22 20  1  0  0  0  0
 25 12  1  0  0  0  0
 25 26  1  0  0  0  0
 25 27  1  0  0  0  0
 29 28  1  0  0  0  0
 30 28  1  0  0  0  0
M  END
