NH2_R1238_anion
 OpenBabel02212111253D

 30 32  0  0  0  0  0  0  0  0999 V2000
   -0.4887    1.1382    0.0305 N   0  0  0  0  0  0  0  0  0  0  0  0
   -0.4215   -1.7442   -0.0113 N   0  0  0  0  0  0  0  0  0  0  0  0
    1.8730    2.5831   -0.0191 N   0  0  0  0  0  0  0  0  0  0  0  0
    0.6836    0.4357    0.0184 C   0  0  0  0  0  0  0  0  0  0  0  0
    0.7212   -1.0029   -0.0034 C   0  0  0  0  0  0  0  0  0  0  0  0
   -1.6294    0.4033    0.0171 C   0  0  0  0  0  0  0  0  0  0  0  0
   -1.5949   -1.0470   -0.0035 C   0  0  0  0  0  0  0  0  0  0  0  0
    1.9064    1.1574    0.0216 C   0  0  0  0  0  0  0  0  0  0  0  0
    1.9854   -1.6446    0.0160 C   0  0  0  0  0  0  0  0  0  0  0  0
    3.1353    0.4957   -0.0176 C   0  0  0  0  0  0  0  0  0  0  0  0
   -2.8900    1.0540    0.0202 C   0  0  0  0  0  0  0  0  0  0  0  0
   -2.8280   -1.7383   -0.0161 C   0  0  0  0  0  0  0  0  0  0  0  0
    3.1706   -0.9153    0.0149 C   0  0  0  0  0  0  0  0  0  0  0  0
   -4.0863    0.3387    0.0051 C   0  0  0  0  0  0  0  0  0  0  0  0
   -4.0542   -1.0692   -0.0106 C   0  0  0  0  0  0  0  0  0  0  0  0
   -2.8935    2.1427    0.0377 H   0  0  0  0  0  0  0  0  0  0  0  0
   -2.7908   -2.8249   -0.0310 H   0  0  0  0  0  0  0  0  0  0  0  0
   -4.9863   -1.6325   -0.0087 H   0  0  0  0  0  0  0  0  0  0  0  0
    0.8900    2.8576   -0.0154 H   0  0  0  0  0  0  0  0  0  0  0  0
    2.3264    2.9922    0.7959 H   0  0  0  0  0  0  0  0  0  0  0  0
    4.3506    1.2410   -0.0501 N   0  0  0  0  0  0  0  0  0  0  0  0
    4.1837    2.1470   -0.4833 H   0  0  0  0  0  0  0  0  0  0  0  0
    5.0576    0.7371   -0.5808 H   0  0  0  0  0  0  0  0  0  0  0  0
    4.4592   -1.5458   -0.0325 N   0  0  0  0  0  0  0  0  0  0  0  0
    4.3643   -2.5560   -0.0246 H   0  0  0  0  0  0  0  0  0  0  0  0
    5.0388   -1.2727    0.7591 H   0  0  0  0  0  0  0  0  0  0  0  0
    2.0025   -2.7326    0.0376 H   0  0  0  0  0  0  0  0  0  0  0  0
   -5.3385    1.0215    0.0641 N   0  0  0  0  0  0  0  0  0  0  0  0
   -6.0724    0.5174   -0.4218 H   0  0  0  0  0  0  0  0  0  0  0  0
   -5.2764    1.9625   -0.3092 H   0  0  0  0  0  0  0  0  0  0  0  0
  2  7  2  0  0  0  0
  2  5  1  0  0  0  0
  3 19  1  0  0  0  0
  3  8  1  0  0  0  0
  3 20  1  0  0  0  0
  4  8  1  0  0  0  0
  4  1  1  0  0  0  0
  5  9  1  0  0  0  0
  5  4  2  0  0  0  0
  6 11  1  0  0  0  0
  6  1  2  0  0  0  0
  7  6  1  0  0  0  0
  9 27  1  0  0  0  0
 10 13  1  0  0  0  0
 10  8  2  0  0  0  0
 11 16  1  0  0  0  0
 12 15  2  0  0  0  0
 12  7  1  0  0  0  0
 13  9  2  0  0  0  0
 14 11  2  0  0  0  0
 14 28  1  0  0  0  0
 15 18  1  0  0  0  0
 15 14  1  0  0  0  0
 17 12  1  0  0  0  0
 21 10  1  0  0  0  0
 22 21  1  0  0  0  0
 23 21  1  0  0  0  0
 24 25  1  0  0  0  0
 24 13  1  0  0  0  0
 24 26  1  0  0  0  0
 29 28  1  0  0  0  0
 30 28  1  0  0  0  0
M  END
