NH2_R146_anion
 OpenBabel02212111253D

 28 30  0  0  0  0  0  0  0  0999 V2000
    0.0903   -1.6426   -0.0079 N   0  0  0  0  0  0  0  0  0  0  0  0
   -0.3392    1.1996   -0.0066 N   0  0  0  0  0  0  0  0  0  0  0  0
    2.6293   -2.6760    0.1033 N   0  0  0  0  0  0  0  0  0  0  0  0
    1.1282   -0.7551    0.0010 C   0  0  0  0  0  0  0  0  0  0  0  0
    0.9185    0.6641   -0.0082 C   0  0  0  0  0  0  0  0  0  0  0  0
   -1.1666   -1.1146   -0.0164 C   0  0  0  0  0  0  0  0  0  0  0  0
   -1.3762    0.3106   -0.0157 C   0  0  0  0  0  0  0  0  0  0  0  0
    2.4598   -1.2686    0.0277 C   0  0  0  0  0  0  0  0  0  0  0  0
    2.0436    1.5402   -0.0239 C   0  0  0  0  0  0  0  0  0  0  0  0
    3.5357   -0.3873    0.0289 C   0  0  0  0  0  0  0  0  0  0  0  0
   -2.2965   -1.9733   -0.0069 C   0  0  0  0  0  0  0  0  0  0  0  0
   -2.7102    0.8165   -0.0102 C   0  0  0  0  0  0  0  0  0  0  0  0
    3.3287    1.0078   -0.0156 C   0  0  0  0  0  0  0  0  0  0  0  0
   -3.5846   -1.4504    0.0076 C   0  0  0  0  0  0  0  0  0  0  0  0
   -3.7982   -0.0591    0.0013 C   0  0  0  0  0  0  0  0  0  0  0  0
   -2.1183   -3.0453   -0.0036 H   0  0  0  0  0  0  0  0  0  0  0  0
   -4.4416   -2.1211    0.0172 H   0  0  0  0  0  0  0  0  0  0  0  0
   -4.8097    0.3431   -0.0123 H   0  0  0  0  0  0  0  0  0  0  0  0
    1.7277   -3.1223   -0.0551 H   0  0  0  0  0  0  0  0  0  0  0  0
    3.3228   -3.0243   -0.5495 H   0  0  0  0  0  0  0  0  0  0  0  0
    4.5500   -0.7804    0.0672 H   0  0  0  0  0  0  0  0  0  0  0  0
    4.1855    1.6786   -0.0482 H   0  0  0  0  0  0  0  0  0  0  0  0
    1.8079    2.9397   -0.0984 N   0  0  0  0  0  0  0  0  0  0  0  0
   -2.8839    2.2171   -0.0637 N   0  0  0  0  0  0  0  0  0  0  0  0
   -2.0015    2.6820    0.1314 H   0  0  0  0  0  0  0  0  0  0  0  0
   -3.6301    2.5564    0.5315 H   0  0  0  0  0  0  0  0  0  0  0  0
    0.8189    3.1171    0.0578 H   0  0  0  0  0  0  0  0  0  0  0  0
    2.3723    3.4672    0.5588 H   0  0  0  0  0  0  0  0  0  0  0  0
  1  4  1  0  0  0  0
  4  8  1  0  0  0  0
  5  2  1  0  0  0  0
  5  4  2  0  0  0  0
  6  7  1  0  0  0  0
  6  1  2  0  0  0  0
  6 11  1  0  0  0  0
  7 12  1  0  0  0  0
  7  2  2  0  0  0  0
  8 10  2  0  0  0  0
  8  3  1  0  0  0  0
  9 13  2  0  0  0  0
  9  5  1  0  0  0  0
 10 21  1  0  0  0  0
 11 16  1  0  0  0  0
 11 14  2  0  0  0  0
 12 15  2  0  0  0  0
 13 10  1  0  0  0  0
 14 17  1  0  0  0  0
 15 14  1  0  0  0  0
 18 15  1  0  0  0  0
 19  3  1  0  0  0  0
 20  3  1  0  0  0  0
 22 13  1  0  0  0  0
 23  9  1  0  0  0  0
 23 27  1  0  0  0  0
 23 28  1  0  0  0  0
 24 12  1  0  0  0  0
 24 25  1  0  0  0  0
 24 26  1  0  0  0  0
M  END
