NH2_R123469_anion
 OpenBabel03162103393D

 34 36  0  0  0  0  0  0  0  0999 V2000
   -0.5587   -1.4377    0.0082 N   0  0  0  0  0  0  0  0  0  0  0  0
   -0.5622    1.4392    0.0274 N   0  0  0  0  0  0  0  0  0  0  0  0
   -1.7212   -0.7199    0.0210 C   0  0  0  0  0  0  0  0  0  0  0  0
   -1.7233    0.7161    0.0306 C   0  0  0  0  0  0  0  0  0  0  0  0
    0.6035   -0.7133    0.0089 C   0  0  0  0  0  0  0  0  0  0  0  0
    0.6005    0.7219    0.0188 C   0  0  0  0  0  0  0  0  0  0  0  0
   -2.9629   -1.4224   -0.0052 C   0  0  0  0  0  0  0  0  0  0  0  0
   -2.9665    1.4147    0.0154 C   0  0  0  0  0  0  0  0  0  0  0  0
   -4.1576   -0.7110   -0.0209 C   0  0  0  0  0  0  0  0  0  0  0  0
    1.8455   -1.4017    0.0288 C   0  0  0  0  0  0  0  0  0  0  0  0
    1.8389    1.4163    0.0286 C   0  0  0  0  0  0  0  0  0  0  0  0
   -4.1594    0.7000   -0.0105 C   0  0  0  0  0  0  0  0  0  0  0  0
    3.0507   -0.6958    0.0028 C   0  0  0  0  0  0  0  0  0  0  0  0
    3.0445    0.7174   -0.0156 C   0  0  0  0  0  0  0  0  0  0  0  0
    4.2747    1.4250   -0.0454 N   0  0  0  0  0  0  0  0  0  0  0  0
    4.1630    2.3064   -0.5411 H   0  0  0  0  0  0  0  0  0  0  0  0
    4.9930    0.8536   -0.4839 H   0  0  0  0  0  0  0  0  0  0  0  0
    4.3144   -1.3727   -0.1044 N   0  0  0  0  0  0  0  0  0  0  0  0
    4.1602   -2.3285   -0.4155 H   0  0  0  0  0  0  0  0  0  0  0  0
    4.8222   -1.4002    0.7782 H   0  0  0  0  0  0  0  0  0  0  0  0
    1.8477   -2.8322    0.0067 N   0  0  0  0  0  0  0  0  0  0  0  0
    0.8716   -3.1262   -0.0162 H   0  0  0  0  0  0  0  0  0  0  0  0
    2.2675   -3.2165    0.8516 H   0  0  0  0  0  0  0  0  0  0  0  0
    1.8505    2.8449   -0.0075 N   0  0  0  0  0  0  0  0  0  0  0  0
    2.3266    3.2327    0.8054 H   0  0  0  0  0  0  0  0  0  0  0  0
    0.8800    3.1544    0.0108 H   0  0  0  0  0  0  0  0  0  0  0  0
   -5.1027   -1.2512   -0.0199 H   0  0  0  0  0  0  0  0  0  0  0  0
   -5.1060    1.2375   -0.0011 H   0  0  0  0  0  0  0  0  0  0  0  0
   -2.9301   -2.8431    0.0291 N   0  0  0  0  0  0  0  0  0  0  0  0
   -1.9790   -3.1544   -0.1526 H   0  0  0  0  0  0  0  0  0  0  0  0
   -3.5732   -3.2634   -0.6330 H   0  0  0  0  0  0  0  0  0  0  0  0
   -2.9383    2.8348    0.0703 N   0  0  0  0  0  0  0  0  0  0  0  0
   -3.5790    3.2628   -0.5892 H   0  0  0  0  0  0  0  0  0  0  0  0
   -1.9870    3.1510   -0.1018 H   0  0  0  0  0  0  0  0  0  0  0  0
  1  5  2  0  0  0  0
  1  3  1  0  0  0  0
  2  4  1  0  0  0  0
  3  4  1  0  0  0  0
  5  6  1  0  0  0  0
  5 10  1  0  0  0  0
  6  2  2  0  0  0  0
  6 11  1  0  0  0  0
  7  3  2  0  0  0  0
  7 29  1  0  0  0  0
  8  4  2  0  0  0  0
  8 32  1  0  0  0  0
  9 27  1  0  0  0  0
  9 12  2  0  0  0  0
  9  7  1  0  0  0  0
 12 28  1  0  0  0  0
 12  8  1  0  0  0  0
 13 10  2  0  0  0  0
 14 13  1  0  0  0  0
 14 11  2  0  0  0  0
 15 14  1  0  0  0  0
 16 15  1  0  0  0  0
 17 15  1  0  0  0  0
 18 13  1  0  0  0  0
 18 20  1  0  0  0  0
 19 18  1  0  0  0  0
 21 10  1  0  0  0  0
 21 23  1  0  0  0  0
 22 21  1  0  0  0  0
 24 26  1  0  0  0  0
 24 11  1  0  0  0  0
 24 25  1  0  0  0  0
 30 29  1  0  0  0  0
 31 29  1  0  0  0  0
 33 32  1  0  0  0  0
 34 32  1  0  0  0  0
M  END
