NH2_R124_anion
 OpenBabel02212111253D

 28 30  0  0  0  0  0  0  0  0999 V2000
    0.5142   -1.3892   -0.0002 N   0  0  0  0  0  0  0  0  0  0  0  0
    0.7977    1.4753    0.0002 N   0  0  0  0  0  0  0  0  0  0  0  0
   -2.0172   -2.5627   -0.0135 N   0  0  0  0  0  0  0  0  0  0  0  0
   -0.5679   -0.5615    0.0026 C   0  0  0  0  0  0  0  0  0  0  0  0
   -0.4277    0.8665   -0.0114 C   0  0  0  0  0  0  0  0  0  0  0  0
    1.7390   -0.7901   -0.0094 C   0  0  0  0  0  0  0  0  0  0  0  0
    1.8808    0.6533   -0.0009 C   0  0  0  0  0  0  0  0  0  0  0  0
   -1.8687   -1.1377    0.0209 C   0  0  0  0  0  0  0  0  0  0  0  0
   -1.5976    1.6774   -0.0075 C   0  0  0  0  0  0  0  0  0  0  0  0
   -2.9953   -0.3197    0.0011 C   0  0  0  0  0  0  0  0  0  0  0  0
    2.9132   -1.5824   -0.0167 C   0  0  0  0  0  0  0  0  0  0  0  0
    3.1887    1.2037    0.0055 C   0  0  0  0  0  0  0  0  0  0  0  0
   -2.8603    1.0857   -0.0021 C   0  0  0  0  0  0  0  0  0  0  0  0
    4.1842   -1.0075   -0.0131 C   0  0  0  0  0  0  0  0  0  0  0  0
    4.3222    0.3929   -0.0008 C   0  0  0  0  0  0  0  0  0  0  0  0
    2.7859   -2.6626   -0.0236 H   0  0  0  0  0  0  0  0  0  0  0  0
    3.2732    2.2880    0.0125 H   0  0  0  0  0  0  0  0  0  0  0  0
    5.0673   -1.6434   -0.0193 H   0  0  0  0  0  0  0  0  0  0  0  0
    5.3124    0.8442    0.0023 H   0  0  0  0  0  0  0  0  0  0  0  0
   -1.0776   -2.9535   -0.0889 H   0  0  0  0  0  0  0  0  0  0  0  0
   -2.4244   -2.9094    0.8543 H   0  0  0  0  0  0  0  0  0  0  0  0
   -4.2801   -0.9290    0.0236 N   0  0  0  0  0  0  0  0  0  0  0  0
   -4.2470   -1.8360   -0.4369 H   0  0  0  0  0  0  0  0  0  0  0  0
   -4.9879   -0.3445   -0.4076 H   0  0  0  0  0  0  0  0  0  0  0  0
   -3.7514    1.7116   -0.0260 H   0  0  0  0  0  0  0  0  0  0  0  0
   -1.4320    3.0818   -0.0614 N   0  0  0  0  0  0  0  0  0  0  0  0
   -0.4531    3.3077    0.1037 H   0  0  0  0  0  0  0  0  0  0  0  0
   -2.0387    3.5808    0.5791 H   0  0  0  0  0  0  0  0  0  0  0  0
  1  4  1  0  0  0  0
  3  8  1  0  0  0  0
  3 21  1  0  0  0  0
  4  8  1  0  0  0  0
  5  9  1  0  0  0  0
  5  2  1  0  0  0  0
  5  4  2  0  0  0  0
  6  7  1  0  0  0  0
  6  1  2  0  0  0  0
  7  2  2  0  0  0  0
  7 12  1  0  0  0  0
  9 13  2  0  0  0  0
 10  8  2  0  0  0  0
 10 22  1  0  0  0  0
 11 14  2  0  0  0  0
 11  6  1  0  0  0  0
 12 17  1  0  0  0  0
 13 10  1  0  0  0  0
 14 15  1  0  0  0  0
 15 19  1  0  0  0  0
 15 12  2  0  0  0  0
 16 11  1  0  0  0  0
 18 14  1  0  0  0  0
 20  3  1  0  0  0  0
 23 22  1  0  0  0  0
 24 22  1  0  0  0  0
 25 13  1  0  0  0  0
 26  9  1  0  0  0  0
 26 27  1  0  0  0  0
 26 28  1  0  0  0  0
M  END
