NO2_R1267_anion
 OpenBabel02252114183D

 30 32  0  0  0  0  0  0  0  0999 V2000
    3.3992   -2.2799   -1.0921 O   0  0  0  0  0  0  0  0  0  0  0  0
    3.3991   -2.2801    1.0918 O   0  0  0  0  0  0  0  0  0  0  0  0
   -3.3981    2.2804   -1.0918 O   0  0  0  0  0  0  0  0  0  0  0  0
   -3.3982    2.2802    1.0921 O   0  0  0  0  0  0  0  0  0  0  0  0
    0.5509   -1.3174   -0.0001 N   0  0  0  0  0  0  0  0  0  0  0  0
   -0.5511    1.3173    0.0001 N   0  0  0  0  0  0  0  0  0  0  0  0
    3.2437   -1.7452   -0.0001 N   0  0  0  0  0  0  0  0  0  0  0  0
   -3.2439    1.7451    0.0001 N   0  0  0  0  0  0  0  0  0  0  0  0
    1.3387   -0.2136    0.0000 C   0  0  0  0  0  0  0  0  0  0  0  0
   -1.3389    0.2135   -0.0000 C   0  0  0  0  0  0  0  0  0  0  0  0
    0.7719    1.1193    0.0001 C   0  0  0  0  0  0  0  0  0  0  0  0
   -0.7722   -1.1194   -0.0001 C   0  0  0  0  0  0  0  0  0  0  0  0
    2.7433   -0.3515    0.0000 C   0  0  0  0  0  0  0  0  0  0  0  0
   -2.7435    0.3514   -0.0000 C   0  0  0  0  0  0  0  0  0  0  0  0
    1.6539    2.2409    0.0001 C   0  0  0  0  0  0  0  0  0  0  0  0
   -1.6541   -2.2410   -0.0002 C   0  0  0  0  0  0  0  0  0  0  0  0
    3.5840    0.7684    0.0001 C   0  0  0  0  0  0  0  0  0  0  0  0
   -3.5842   -0.7684   -0.0001 C   0  0  0  0  0  0  0  0  0  0  0  0
    3.0143    2.0671    0.0001 C   0  0  0  0  0  0  0  0  0  0  0  0
   -3.0145   -2.0671   -0.0002 C   0  0  0  0  0  0  0  0  0  0  0  0
    1.2105    3.2309    0.0002 H   0  0  0  0  0  0  0  0  0  0  0  0
   -1.2108   -3.2309   -0.0003 H   0  0  0  0  0  0  0  0  0  0  0  0
    3.6928    2.9104    0.0002 H   0  0  0  0  0  0  0  0  0  0  0  0
   -3.6930   -2.9104   -0.0003 H   0  0  0  0  0  0  0  0  0  0  0  0
   -5.0196   -0.6604   -0.0001 N   0  0  0  0  0  0  0  0  0  0  0  0
   -5.6896   -1.7112   -0.0002 O   0  0  0  0  0  0  0  0  0  0  0  0
   -5.5260    0.4724   -0.0002 O   0  0  0  0  0  0  0  0  0  0  0  0
    5.0193    0.6603    0.0002 N   0  0  0  0  0  0  0  0  0  0  0  0
    5.6894    1.7112    0.0000 O   0  0  0  0  0  0  0  0  0  0  0  0
    5.5258   -0.4725    0.0004 O   0  0  0  0  0  0  0  0  0  0  0  0
  1  7  2  0  0  0  0
  3  8  2  0  0  0  0
  5  9  1  0  0  0  0
  6 11  1  0  0  0  0
  7 13  1  0  0  0  0
  7  2  2  0  0  0  0
  8  4  2  0  0  0  0
  9 13  2  0  0  0  0
  9 11  1  0  0  0  0
 10  6  2  0  0  0  0
 11 15  2  0  0  0  0
 12  5  2  0  0  0  0
 12 10  1  0  0  0  0
 13 17  1  0  0  0  0
 14 10  1  0  0  0  0
 14  8  1  0  0  0  0
 15 19  1  0  0  0  0
 15 21  1  0  0  0  0
 16 20  2  0  0  0  0
 16 12  1  0  0  0  0
 17 19  2  0  0  0  0
 17 28  1  0  0  0  0
 18 14  2  0  0  0  0
 19 23  1  0  0  0  0
 20 18  1  0  0  0  0
 22 16  1  0  0  0  0
 24 20  1  0  0  0  0
 25 18  1  0  0  0  0
 26 25  2  0  0  0  0
 27 25  2  0  0  0  0
 28 30  2  0  0  0  0
 29 28  2  0  0  0  0
M  END
