NO2_R19_anion
 OpenBabel03162103393D

 26 28  0  0  0  0  0  0  0  0999 V2000
   -3.5514   -2.3510    0.2518 O   0  0  0  0  0  0  0  0  0  0  0  0
   -1.7411   -2.3698   -0.9700 O   0  0  0  0  0  0  0  0  0  0  0  0
    3.5513   -2.3510   -0.2519 O   0  0  0  0  0  0  0  0  0  0  0  0
    1.7412   -2.3698    0.9701 O   0  0  0  0  0  0  0  0  0  0  0  0
   -0.0000   -0.4044    0.0000 N   0  0  0  0  0  0  0  0  0  0  0  0
   -0.0000    2.4418    0.0000 N   0  0  0  0  0  0  0  0  0  0  0  0
   -2.5650   -1.7836   -0.2641 N   0  0  0  0  0  0  0  0  0  0  0  0
    2.5650   -1.7835    0.2641 N   0  0  0  0  0  0  0  0  0  0  0  0
   -1.1508    0.2896   -0.0237 C   0  0  0  0  0  0  0  0  0  0  0  0
    1.1508    0.2897    0.0237 C   0  0  0  0  0  0  0  0  0  0  0  0
   -1.1558    1.7411    0.0565 C   0  0  0  0  0  0  0  0  0  0  0  0
    1.1558    1.7411   -0.0565 C   0  0  0  0  0  0  0  0  0  0  0  0
   -2.4320   -0.3526   -0.0569 C   0  0  0  0  0  0  0  0  0  0  0  0
    2.4320   -0.3526    0.0569 C   0  0  0  0  0  0  0  0  0  0  0  0
   -2.3800    2.4410    0.1792 C   0  0  0  0  0  0  0  0  0  0  0  0
    2.3800    2.4410   -0.1792 C   0  0  0  0  0  0  0  0  0  0  0  0
   -3.6218    0.3660    0.0980 C   0  0  0  0  0  0  0  0  0  0  0  0
    3.6218    0.3660   -0.0980 C   0  0  0  0  0  0  0  0  0  0  0  0
   -3.5922    1.7596    0.2122 C   0  0  0  0  0  0  0  0  0  0  0  0
    3.5922    1.7596   -0.2122 C   0  0  0  0  0  0  0  0  0  0  0  0
   -2.3317    3.5241    0.2432 H   0  0  0  0  0  0  0  0  0  0  0  0
    2.3317    3.5241   -0.2432 H   0  0  0  0  0  0  0  0  0  0  0  0
   -4.5566   -0.1805    0.1037 H   0  0  0  0  0  0  0  0  0  0  0  0
    4.5566   -0.1805   -0.1037 H   0  0  0  0  0  0  0  0  0  0  0  0
   -4.5252    2.3080    0.3091 H   0  0  0  0  0  0  0  0  0  0  0  0
    4.5252    2.3080   -0.3091 H   0  0  0  0  0  0  0  0  0  0  0  0
  2  7  2  0  0  0  0
  3  8  2  0  0  0  0
  5 10  1  0  0  0  0
  6 11  2  0  0  0  0
  7 13  1  0  0  0  0
  7  1  2  0  0  0  0
  8  4  2  0  0  0  0
  9  5  2  0  0  0  0
  9 11  1  0  0  0  0
 10 14  1  0  0  0  0
 11 15  1  0  0  0  0
 12  6  1  0  0  0  0
 12 10  2  0  0  0  0
 13  9  1  0  0  0  0
 13 17  2  0  0  0  0
 14  8  1  0  0  0  0
 15 19  2  0  0  0  0
 15 21  1  0  0  0  0
 16 12  1  0  0  0  0
 17 23  1  0  0  0  0
 17 19  1  0  0  0  0
 18 14  2  0  0  0  0
 19 25  1  0  0  0  0
 20 16  2  0  0  0  0
 20 18  1  0  0  0  0
 22 16  1  0  0  0  0
 24 18  1  0  0  0  0
 26 20  1  0  0  0  0
M  END
