NO2_R16_anion
 OpenBabel03162103393D

 26 28  0  0  0  0  0  0  0  0999 V2000
    4.8809   -0.7936   -0.2743 O   0  0  0  0  0  0  0  0  0  0  0  0
    3.3173   -1.9846    0.6789 O   0  0  0  0  0  0  0  0  0  0  0  0
    0.7804   -1.1868   -0.0485 N   0  0  0  0  0  0  0  0  0  0  0  0
   -0.7804    1.1868   -0.0486 N   0  0  0  0  0  0  0  0  0  0  0  0
    3.7081   -0.9417    0.1401 N   0  0  0  0  0  0  0  0  0  0  0  0
    1.3718    0.0122   -0.0133 C   0  0  0  0  0  0  0  0  0  0  0  0
   -1.3718   -0.0122   -0.0133 C   0  0  0  0  0  0  0  0  0  0  0  0
    0.5748    1.2281   -0.0738 C   0  0  0  0  0  0  0  0  0  0  0  0
   -0.5748   -1.2281   -0.0738 C   0  0  0  0  0  0  0  0  0  0  0  0
    2.8030    0.1786    0.0056 C   0  0  0  0  0  0  0  0  0  0  0  0
   -2.8030   -0.1786    0.0056 C   0  0  0  0  0  0  0  0  0  0  0  0
    1.2057    2.4883   -0.1639 C   0  0  0  0  0  0  0  0  0  0  0  0
   -1.2057   -2.4883   -0.1639 C   0  0  0  0  0  0  0  0  0  0  0  0
    3.3887    1.4438   -0.1120 C   0  0  0  0  0  0  0  0  0  0  0  0
   -3.3887   -1.4438   -0.1119 C   0  0  0  0  0  0  0  0  0  0  0  0
    2.5936    2.5904   -0.1906 C   0  0  0  0  0  0  0  0  0  0  0  0
   -2.5936   -2.5905   -0.1905 C   0  0  0  0  0  0  0  0  0  0  0  0
    0.5646    3.3632   -0.2095 H   0  0  0  0  0  0  0  0  0  0  0  0
   -0.5646   -3.3632   -0.2094 H   0  0  0  0  0  0  0  0  0  0  0  0
   -4.4693   -1.5084   -0.1208 H   0  0  0  0  0  0  0  0  0  0  0  0
    3.0681    3.5653   -0.2595 H   0  0  0  0  0  0  0  0  0  0  0  0
   -3.0681   -3.5653   -0.2595 H   0  0  0  0  0  0  0  0  0  0  0  0
    4.4693    1.5084   -0.1209 H   0  0  0  0  0  0  0  0  0  0  0  0
   -3.7081    0.9417    0.1401 N   0  0  0  0  0  0  0  0  0  0  0  0
   -3.3173    1.9846    0.6788 O   0  0  0  0  0  0  0  0  0  0  0  0
   -4.8809    0.7936   -0.2744 O   0  0  0  0  0  0  0  0  0  0  0  0
  1  5  2  0  0  0  0
  3  6  1  0  0  0  0
  4  7  2  0  0  0  0
  5  2  2  0  0  0  0
  6 10  1  0  0  0  0
  7 11  1  0  0  0  0
  8  4  1  0  0  0  0
  8  6  2  0  0  0  0
  9  3  2  0  0  0  0
  9  7  1  0  0  0  0
 10  5  1  0  0  0  0
 11 24  1  0  0  0  0
 12  8  1  0  0  0  0
 13  9  1  0  0  0  0
 14 10  2  0  0  0  0
 15 11  2  0  0  0  0
 16 12  2  0  0  0  0
 16 14  1  0  0  0  0
 17 13  2  0  0  0  0
 17 15  1  0  0  0  0
 18 12  1  0  0  0  0
 19 13  1  0  0  0  0
 20 15  1  0  0  0  0
 21 16  1  0  0  0  0
 22 17  1  0  0  0  0
 23 14  1  0  0  0  0
 24 25  2  0  0  0  0
 26 24  2  0  0  0  0
M  END
