NO2_R1234_anion
 OpenBabel02182105543D

 30 32  0  0  0  0  0  0  0  0999 V2000
    0.9335    3.3801    1.1040 O   0  0  0  0  0  0  0  0  0  0  0  0
   -0.0015    3.4971   -0.8677 O   0  0  0  0  0  0  0  0  0  0  0  0
   -1.8198   -1.4400   -0.0426 N   0  0  0  0  0  0  0  0  0  0  0  0
   -1.8612    1.4063    0.0341 N   0  0  0  0  0  0  0  0  0  0  0  0
    0.4942    2.8770    0.0667 N   0  0  0  0  0  0  0  0  0  0  0  0
   -2.9946   -0.7493   -0.0476 C   0  0  0  0  0  0  0  0  0  0  0  0
   -0.7118    0.7255   -0.0142 C   0  0  0  0  0  0  0  0  0  0  0  0
   -3.0126    0.6844    0.0245 C   0  0  0  0  0  0  0  0  0  0  0  0
   -0.6976   -0.7318    0.0085 C   0  0  0  0  0  0  0  0  0  0  0  0
   -4.2202   -1.4558   -0.1008 C   0  0  0  0  0  0  0  0  0  0  0  0
    0.5354    1.4127   -0.0352 C   0  0  0  0  0  0  0  0  0  0  0  0
   -4.2605    1.3563    0.0662 C   0  0  0  0  0  0  0  0  0  0  0  0
    0.5784   -1.3875    0.0399 C   0  0  0  0  0  0  0  0  0  0  0  0
   -5.4243   -0.7727   -0.0684 C   0  0  0  0  0  0  0  0  0  0  0  0
    1.7607    0.7334   -0.0045 C   0  0  0  0  0  0  0  0  0  0  0  0
   -5.4435    0.6395    0.0201 C   0  0  0  0  0  0  0  0  0  0  0  0
    1.7681   -0.6735    0.0108 C   0  0  0  0  0  0  0  0  0  0  0  0
   -4.2489    2.4404    0.1249 H   0  0  0  0  0  0  0  0  0  0  0  0
   -6.3607   -1.3227   -0.1064 H   0  0  0  0  0  0  0  0  0  0  0  0
   -6.3950    1.1638    0.0479 H   0  0  0  0  0  0  0  0  0  0  0  0
   -4.1774   -2.5392   -0.1579 H   0  0  0  0  0  0  0  0  0  0  0  0
    3.0135    1.4665    0.0307 N   0  0  0  0  0  0  0  0  0  0  0  0
    3.0444   -1.4110   -0.0730 N   0  0  0  0  0  0  0  0  0  0  0  0
    0.6021   -2.8517    0.0024 N   0  0  0  0  0  0  0  0  0  0  0  0
    1.1765   -3.3850   -0.9532 O   0  0  0  0  0  0  0  0  0  0  0  0
    0.0410   -3.4522    0.9140 O   0  0  0  0  0  0  0  0  0  0  0  0
    3.2858   -2.2155    0.8229 O   0  0  0  0  0  0  0  0  0  0  0  0
    3.7535   -1.1848   -1.0489 O   0  0  0  0  0  0  0  0  0  0  0  0
    3.9169    1.0197    0.7481 O   0  0  0  0  0  0  0  0  0  0  0  0
    3.0950    2.4955   -0.6483 O   0  0  0  0  0  0  0  0  0  0  0  0
  2  5  2  0  0  0  0
  3  9  1  0  0  0  0
  5  1  2  0  0  0  0
  6  3  2  0  0  0  0
  6  8  1  0  0  0  0
  7  9  1  0  0  0  0
  7  4  1  0  0  0  0
  8  4  2  0  0  0  0
  8 12  1  0  0  0  0
  9 13  2  0  0  0  0
 10 14  2  0  0  0  0
 10  6  1  0  0  0  0
 11  7  2  0  0  0  0
 11 15  1  0  0  0  0
 11  5  1  0  0  0  0
 12 18  1  0  0  0  0
 14 16  1  0  0  0  0
 15 17  2  0  0  0  0
 15 22  1  0  0  0  0
 16 20  1  0  0  0  0
 16 12  2  0  0  0  0
 17 13  1  0  0  0  0
 19 14  1  0  0  0  0
 21 10  1  0  0  0  0
 22 29  2  0  0  0  0
 23 17  1  0  0  0  0
 23 27  2  0  0  0  0
 24 13  1  0  0  0  0
 24 26  2  0  0  0  0
 25 24  2  0  0  0  0
 28 23  2  0  0  0  0
 30 22  2  0  0  0  0
M  END
