NO2_R13_anion
 OpenBabel03162120083D

 26 28  0  0  0  0  0  0  0  0999 V2000
   -2.1399    3.2196   -0.4880 O   0  0  0  0  0  0  0  0  0  0  0  0
   -0.2709    3.2704    0.6402 O   0  0  0  0  0  0  0  0  0  0  0  0
    1.3086    1.0987   -0.0612 N   0  0  0  0  0  0  0  0  0  0  0  0
    1.1594   -1.7482    0.0804 N   0  0  0  0  0  0  0  0  0  0  0  0
   -1.1663    2.6559    0.0513 N   0  0  0  0  0  0  0  0  0  0  0  0
    0.1394    0.4813    0.0173 C   0  0  0  0  0  0  0  0  0  0  0  0
    2.3516   -1.1089    0.0303 C   0  0  0  0  0  0  0  0  0  0  0  0
    0.0436   -0.9817    0.0547 C   0  0  0  0  0  0  0  0  0  0  0  0
    2.4315    0.3229   -0.0616 C   0  0  0  0  0  0  0  0  0  0  0  0
   -1.1184    1.2051    0.0077 C   0  0  0  0  0  0  0  0  0  0  0  0
    3.5587   -1.8610    0.0527 C   0  0  0  0  0  0  0  0  0  0  0  0
   -1.2148   -1.6152    0.0518 C   0  0  0  0  0  0  0  0  0  0  0  0
    3.7015    0.9418   -0.1450 C   0  0  0  0  0  0  0  0  0  0  0  0
   -2.3392    0.5548   -0.0356 C   0  0  0  0  0  0  0  0  0  0  0  0
    4.7861   -1.2274   -0.0251 C   0  0  0  0  0  0  0  0  0  0  0  0
   -2.3872   -0.8455   -0.0023 C   0  0  0  0  0  0  0  0  0  0  0  0
    4.8609    0.1822   -0.1277 C   0  0  0  0  0  0  0  0  0  0  0  0
   -1.2620   -2.6953    0.0795 H   0  0  0  0  0  0  0  0  0  0  0  0
    3.7285    2.0253   -0.2155 H   0  0  0  0  0  0  0  0  0  0  0  0
    5.7007   -1.8152   -0.0095 H   0  0  0  0  0  0  0  0  0  0  0  0
    5.8309    0.6686   -0.1899 H   0  0  0  0  0  0  0  0  0  0  0  0
    3.4772   -2.9418    0.1263 H   0  0  0  0  0  0  0  0  0  0  0  0
   -3.2557    1.1269   -0.0714 H   0  0  0  0  0  0  0  0  0  0  0  0
   -3.6694   -1.4895   -0.0115 N   0  0  0  0  0  0  0  0  0  0  0  0
   -3.7017   -2.7376    0.0180 O   0  0  0  0  0  0  0  0  0  0  0  0
   -4.7034   -0.7871   -0.0498 O   0  0  0  0  0  0  0  0  0  0  0  0
  1  5  2  0  0  0  0
  3  6  1  0  0  0  0
  5  2  2  0  0  0  0
  6  8  1  0  0  0  0
  7 11  1  0  0  0  0
  7  4  2  0  0  0  0
  8  4  1  0  0  0  0
  9  3  2  0  0  0  0
  9  7  1  0  0  0  0
 10  6  2  0  0  0  0
 10  5  1  0  0  0  0
 11 22  1  0  0  0  0
 12  8  2  0  0  0  0
 12 18  1  0  0  0  0
 13 17  2  0  0  0  0
 13  9  1  0  0  0  0
 14 16  2  0  0  0  0
 14 10  1  0  0  0  0
 15 20  1  0  0  0  0
 15 11  2  0  0  0  0
 16 12  1  0  0  0  0
 17 15  1  0  0  0  0
 19 13  1  0  0  0  0
 21 17  1  0  0  0  0
 23 14  1  0  0  0  0
 24 16  1  0  0  0  0
 24 25  2  0  0  0  0
 26 24  2  0  0  0  0
M  END
