NO2_R2_anion
 OpenBabel02212111253D

 24 26  0  0  0  0  0  0  0  0999 V2000
    3.9394   -1.5029   -0.1620 O   0  0  0  0  0  0  0  0  0  0  0  0
    2.0040   -2.4500    0.2220 O   0  0  0  0  0  0  0  0  0  0  0  0
   -0.2286   -0.9345   -0.0252 N   0  0  0  0  0  0  0  0  0  0  0  0
   -1.1303    1.7709    0.0337 N   0  0  0  0  0  0  0  0  0  0  0  0
    2.6917   -1.4335    0.0187 N   0  0  0  0  0  0  0  0  0  0  0  0
    0.6502    0.0698    0.0072 C   0  0  0  0  0  0  0  0  0  0  0  0
    0.1865    1.4650    0.0198 C   0  0  0  0  0  0  0  0  0  0  0  0
   -1.5531   -0.6212   -0.0253 C   0  0  0  0  0  0  0  0  0  0  0  0
   -2.0094    0.7404    0.0158 C   0  0  0  0  0  0  0  0  0  0  0  0
    2.0858   -0.1337    0.0019 C   0  0  0  0  0  0  0  0  0  0  0  0
    1.1217    2.5269    0.0140 C   0  0  0  0  0  0  0  0  0  0  0  0
    2.9701    0.9634   -0.0226 C   0  0  0  0  0  0  0  0  0  0  0  0
   -2.5115   -1.6656   -0.0605 C   0  0  0  0  0  0  0  0  0  0  0  0
   -3.4074    0.9971    0.0274 C   0  0  0  0  0  0  0  0  0  0  0  0
    2.4918    2.2714   -0.0110 C   0  0  0  0  0  0  0  0  0  0  0  0
   -3.8699   -1.3859   -0.0508 C   0  0  0  0  0  0  0  0  0  0  0  0
   -4.3194   -0.0452   -0.0050 C   0  0  0  0  0  0  0  0  0  0  0  0
    0.7269    3.5385    0.0250 H   0  0  0  0  0  0  0  0  0  0  0  0
    4.0311    0.7543   -0.0387 H   0  0  0  0  0  0  0  0  0  0  0  0
   -2.1376   -2.6851   -0.0920 H   0  0  0  0  0  0  0  0  0  0  0  0
    3.1991    3.0971   -0.0174 H   0  0  0  0  0  0  0  0  0  0  0  0
   -3.7289    2.0349    0.0597 H   0  0  0  0  0  0  0  0  0  0  0  0
   -4.5925   -2.1980   -0.0767 H   0  0  0  0  0  0  0  0  0  0  0  0
   -5.3863    0.1666    0.0035 H   0  0  0  0  0  0  0  0  0  0  0  0
  1  5  2  0  0  0  0
  3  6  1  0  0  0  0
  5  2  2  0  0  0  0
  6  7  1  0  0  0  0
  7  4  1  0  0  0  0
  8  3  2  0  0  0  0
  8  9  1  0  0  0  0
  9 14  1  0  0  0  0
  9  4  2  0  0  0  0
 10  6  2  0  0  0  0
 10  5  1  0  0  0  0
 11  7  2  0  0  0  0
 11 18  1  0  0  0  0
 12 15  2  0  0  0  0
 12 10  1  0  0  0  0
 13 16  2  0  0  0  0
 13  8  1  0  0  0  0
 14 22  1  0  0  0  0
 15 11  1  0  0  0  0
 16 17  1  0  0  0  0
 17 24  1  0  0  0  0
 17 14  2  0  0  0  0
 19 12  1  0  0  0  0
 20 13  1  0  0  0  0
 21 15  1  0  0  0  0
 23 16  1  0  0  0  0
M  END
