OCH3_R2_Anion
 OpenBabel02212111253D

 26 28  0  0  0  0  0  0  0  0999 V2000
    4.2548   -0.1731   -0.0000 O   0  0  0  0  0  0  0  0  0  0  0  0
   -0.4778   -1.2365   -0.0000 N   0  0  0  0  0  0  0  0  0  0  0  0
   -1.0439    1.5913   -0.0000 N   0  0  0  0  0  0  0  0  0  0  0  0
    0.5121   -0.3092   -0.0000 C   0  0  0  0  0  0  0  0  0  0  0  0
    0.2323    1.1094   -0.0000 C   0  0  0  0  0  0  0  0  0  0  0  0
   -1.7550   -0.7580   -0.0000 C   0  0  0  0  0  0  0  0  0  0  0  0
   -2.0371    0.6631   -0.0000 C   0  0  0  0  0  0  0  0  0  0  0  0
    1.8676   -0.7438   -0.0000 C   0  0  0  0  0  0  0  0  0  0  0  0
    1.3279    2.0062    0.0000 C   0  0  0  0  0  0  0  0  0  0  0  0
    2.9092    0.1767   -0.0000 C   0  0  0  0  0  0  0  0  0  0  0  0
    2.6468    1.5601    0.0000 C   0  0  0  0  0  0  0  0  0  0  0  0
   -2.8439   -1.6643   -0.0001 C   0  0  0  0  0  0  0  0  0  0  0  0
   -3.3935    1.0823   -0.0000 C   0  0  0  0  0  0  0  0  0  0  0  0
   -4.1647   -1.2178   -0.0001 C   0  0  0  0  0  0  0  0  0  0  0  0
   -4.4400    0.1631   -0.0000 C   0  0  0  0  0  0  0  0  0  0  0  0
    4.5734   -1.5489    0.0003 C   0  0  0  0  0  0  0  0  0  0  0  0
    2.0332   -1.8151   -0.0001 H   0  0  0  0  0  0  0  0  0  0  0  0
    1.1035    3.0699    0.0000 H   0  0  0  0  0  0  0  0  0  0  0  0
    3.4815    2.2550    0.0000 H   0  0  0  0  0  0  0  0  0  0  0  0
   -2.6082   -2.7260   -0.0001 H   0  0  0  0  0  0  0  0  0  0  0  0
   -3.5831    2.1531   -0.0000 H   0  0  0  0  0  0  0  0  0  0  0  0
   -4.9812   -1.9373   -0.0001 H   0  0  0  0  0  0  0  0  0  0  0  0
   -5.4703    0.5138   -0.0000 H   0  0  0  0  0  0  0  0  0  0  0  0
    5.6652   -1.6092    0.0003 H   0  0  0  0  0  0  0  0  0  0  0  0
    4.1818   -2.0578    0.8926 H   0  0  0  0  0  0  0  0  0  0  0  0
    4.1820   -2.0582   -0.8920 H   0  0  0  0  0  0  0  0  0  0  0  0
  1 10  1  0  0  0  0
  1 16  1  0  0  0  0
  2  6  2  0  0  0  0
  2  4  1  0  0  0  0
  4  5  1  0  0  0  0
  5  3  1  0  0  0  0
  5  9  2  0  0  0  0
  6  7  1  0  0  0  0
  7  3  2  0  0  0  0
  8 10  1  0  0  0  0
  8  4  2  0  0  0  0
  9 18  1  0  0  0  0
 10 11  2  0  0  0  0
 11  9  1  0  0  0  0
 11 19  1  0  0  0  0
 12  6  1  0  0  0  0
 13  7  1  0  0  0  0
 13 21  1  0  0  0  0
 14 12  2  0  0  0  0
 14 15  1  0  0  0  0
 15 13  2  0  0  0  0
 16 24  1  0  0  0  0
 16 25  1  0  0  0  0
 17  8  1  0  0  0  0
 20 12  1  0  0  0  0
 22 14  1  0  0  0  0
 23 15  1  0  0  0  0
 26 16  1  0  0  0  0
M  END
