OH_R18_anion
 OpenBabel02222114233D

 24 26  0  0  0  0  0  0  0  0999 V2000
    2.5782    2.4452   -0.0000 O   0  0  0  0  0  0  0  0  0  0  0  0
    0.1729    1.1292   -0.0000 N   0  0  0  0  0  0  0  0  0  0  0  0
    0.1625   -1.7534    0.0000 N   0  0  0  0  0  0  0  0  0  0  0  0
    1.3241    0.4002   -0.0000 C   0  0  0  0  0  0  0  0  0  0  0  0
    1.3225   -1.0467   -0.0000 C   0  0  0  0  0  0  0  0  0  0  0  0
   -0.9814    0.4192    0.0000 C   0  0  0  0  0  0  0  0  0  0  0  0
   -0.9944   -1.0288    0.0000 C   0  0  0  0  0  0  0  0  0  0  0  0
    2.5838    1.0600   -0.0000 C   0  0  0  0  0  0  0  0  0  0  0  0
    2.5610   -1.7463   -0.0000 C   0  0  0  0  0  0  0  0  0  0  0  0
    3.7827    0.3483   -0.0000 C   0  0  0  0  0  0  0  0  0  0  0  0
    3.7666   -1.0606   -0.0000 C   0  0  0  0  0  0  0  0  0  0  0  0
   -2.2246    1.1063   -0.0000 C   0  0  0  0  0  0  0  0  0  0  0  0
   -2.2439   -1.6903    0.0000 C   0  0  0  0  0  0  0  0  0  0  0  0
   -3.4272    0.4112    0.0000 C   0  0  0  0  0  0  0  0  0  0  0  0
   -3.4531   -0.9914    0.0000 C   0  0  0  0  0  0  0  0  0  0  0  0
    2.5228   -2.8321   -0.0000 H   0  0  0  0  0  0  0  0  0  0  0  0
    4.7078   -1.6061   -0.0000 H   0  0  0  0  0  0  0  0  0  0  0  0
   -2.1989    2.1953   -0.0000 H   0  0  0  0  0  0  0  0  0  0  0  0
   -2.2336   -2.7772    0.0000 H   0  0  0  0  0  0  0  0  0  0  0  0
   -4.4079   -1.5088    0.0000 H   0  0  0  0  0  0  0  0  0  0  0  0
    3.4982    2.7376   -0.0001 H   0  0  0  0  0  0  0  0  0  0  0  0
    4.7296    0.8883   -0.0000 H   0  0  0  0  0  0  0  0  0  0  0  0
   -4.6520    1.0750    0.0000 O   0  0  0  0  0  0  0  0  0  0  0  0
   -4.4720    2.0236    0.0001 H   0  0  0  0  0  0  0  0  0  0  0  0
  1  8  1  0  0  0  0
  4  5  1  0  0  0  0
  4  2  2  0  0  0  0
  5  3  2  0  0  0  0
  6 12  1  0  0  0  0
  6  2  1  0  0  0  0
  7  6  2  0  0  0  0
  7  3  1  0  0  0  0
  7 13  1  0  0  0  0
  8  4  1  0  0  0  0
  9  5  1  0  0  0  0
  9 16  1  0  0  0  0
 10 11  1  0  0  0  0
 10  8  2  0  0  0  0
 10 22  1  0  0  0  0
 11  9  2  0  0  0  0
 12 14  2  0  0  0  0
 13 15  2  0  0  0  0
 13 19  1  0  0  0  0
 15 14  1  0  0  0  0
 15 20  1  0  0  0  0
 17 11  1  0  0  0  0
 18 12  1  0  0  0  0
 21  1  1  0  0  0  0
 23 14  1  0  0  0  0
 23 24  1  0  0  0  0
M  END
