OH_R137_anion
 OpenBabel02252114183D

 25 27  0  0  0  0  0  0  0  0999 V2000
   -1.2639    0.7069    0.0000 N   0  0  0  0  0  0  0  0  0  0  0  0
    1.1013   -0.9484    0.0000 N   0  0  0  0  0  0  0  0  0  0  0  0
    0.0000    1.2209    0.0000 C   0  0  0  0  0  0  0  0  0  0  0  0
   -1.3494   -0.6562    0.0000 C   0  0  0  0  0  0  0  0  0  0  0  0
    1.1806    0.4112    0.0000 C   0  0  0  0  0  0  0  0  0  0  0  0
   -0.1528   -1.4771    0.0000 C   0  0  0  0  0  0  0  0  0  0  0  0
    0.1245    2.6351    0.0000 C   0  0  0  0  0  0  0  0  0  0  0  0
   -2.6090   -1.2961    0.0000 C   0  0  0  0  0  0  0  0  0  0  0  0
    2.4420    1.0647    0.0000 C   0  0  0  0  0  0  0  0  0  0  0  0
   -0.3116   -2.8866    0.0000 C   0  0  0  0  0  0  0  0  0  0  0  0
    1.3645    3.2633    0.0000 C   0  0  0  0  0  0  0  0  0  0  0  0
   -2.7344   -2.6869    0.0000 C   0  0  0  0  0  0  0  0  0  0  0  0
    2.5137    2.4521    0.0000 C   0  0  0  0  0  0  0  0  0  0  0  0
   -1.5730   -3.4716    0.0000 C   0  0  0  0  0  0  0  0  0  0  0  0
   -3.4932   -0.6637    0.0000 H   0  0  0  0  0  0  0  0  0  0  0  0
    3.3405    0.4501    0.0000 H   0  0  0  0  0  0  0  0  0  0  0  0
    0.5921   -3.4946    0.0000 H   0  0  0  0  0  0  0  0  0  0  0  0
   -3.7072   -3.1693    0.0000 H   0  0  0  0  0  0  0  0  0  0  0  0
    1.4484    4.3442    0.0000 H   0  0  0  0  0  0  0  0  0  0  0  0
   -1.0372    3.3588    0.0000 O   0  0  0  0  0  0  0  0  0  0  0  0
   -1.7355    2.6676    0.0000 H   0  0  0  0  0  0  0  0  0  0  0  0
    3.7381    3.1124    0.0000 O   0  0  0  0  0  0  0  0  0  0  0  0
    4.4330    2.4421    0.0000 H   0  0  0  0  0  0  0  0  0  0  0  0
   -1.7330   -4.8547    0.0000 O   0  0  0  0  0  0  0  0  0  0  0  0
   -0.8538   -5.2538    0.0000 H   0  0  0  0  0  0  0  0  0  0  0  0
  1  4  2  0  0  0  0
  1  3  1  0  0  0  0
  5  3  1  0  0  0  0
  5  2  1  0  0  0  0
  6  4  1  0  0  0  0
  6  2  2  0  0  0  0
  7  3  2  0  0  0  0
  8  4  1  0  0  0  0
  9  5  2  0  0  0  0
 10  6  1  0  0  0  0
 11  7  1  0  0  0  0
 12  8  2  0  0  0  0
 13 22  1  0  0  0  0
 13 11  2  0  0  0  0
 13  9  1  0  0  0  0
 14 12  1  0  0  0  0
 14 10  2  0  0  0  0
 15  8  1  0  0  0  0
 16  9  1  0  0  0  0
 17 10  1  0  0  0  0
 18 12  1  0  0  0  0
 19 11  1  0  0  0  0
 20  7  1  0  0  0  0
 21 20  1  0  0  0  0
 23 22  1  0  0  0  0
 24 14  1  0  0  0  0
 25 24  1  0  0  0  0
M  END
