OH_R237_anion
 OpenBabel03162103393D

 25 27  0  0  0  0  0  0  0  0999 V2000
    4.3843   -1.5857   -0.0000 O   0  0  0  0  0  0  0  0  0  0  0  0
    4.6014    1.1106   -0.0000 O   0  0  0  0  0  0  0  0  0  0  0  0
   -5.1884   -1.0291    0.0000 O   0  0  0  0  0  0  0  0  0  0  0  0
   -0.4174   -1.3263    0.0000 N   0  0  0  0  0  0  0  0  0  0  0  0
   -0.2326    1.5518   -0.0000 N   0  0  0  0  0  0  0  0  0  0  0  0
    0.7841   -0.6840   -0.0000 C   0  0  0  0  0  0  0  0  0  0  0  0
    0.8717    0.7631   -0.0000 C   0  0  0  0  0  0  0  0  0  0  0  0
   -1.5238   -0.5421    0.0000 C   0  0  0  0  0  0  0  0  0  0  0  0
   -1.4353    0.9059   -0.0000 C   0  0  0  0  0  0  0  0  0  0  0  0
    1.9813   -1.4414   -0.0000 C   0  0  0  0  0  0  0  0  0  0  0  0
    2.1599    1.3583   -0.0000 C   0  0  0  0  0  0  0  0  0  0  0  0
   -2.8087   -1.1474    0.0000 C   0  0  0  0  0  0  0  0  0  0  0  0
   -2.6345    1.6519   -0.0000 C   0  0  0  0  0  0  0  0  0  0  0  0
    3.2252   -0.8244   -0.0000 C   0  0  0  0  0  0  0  0  0  0  0  0
    3.3063    0.5771   -0.0000 C   0  0  0  0  0  0  0  0  0  0  0  0
   -3.9585   -0.3722    0.0000 C   0  0  0  0  0  0  0  0  0  0  0  0
   -3.8870    1.0312   -0.0000 C   0  0  0  0  0  0  0  0  0  0  0  0
    1.9126   -2.5246   -0.0000 H   0  0  0  0  0  0  0  0  0  0  0  0
    2.2201    2.4455   -0.0000 H   0  0  0  0  0  0  0  0  0  0  0  0
   -2.8736   -2.2309    0.0001 H   0  0  0  0  0  0  0  0  0  0  0  0
   -2.5526    2.7359   -0.0000 H   0  0  0  0  0  0  0  0  0  0  0  0
   -4.7990    1.6279   -0.0000 H   0  0  0  0  0  0  0  0  0  0  0  0
    5.1289   -0.9676   -0.0000 H   0  0  0  0  0  0  0  0  0  0  0  0
    4.5336    2.0728   -0.0000 H   0  0  0  0  0  0  0  0  0  0  0  0
   -5.8834   -0.3596    0.0003 H   0  0  0  0  0  0  0  0  0  0  0  0
  1 14  1  0  0  0  0
  2 24  1  0  0  0  0
  2 15  1  0  0  0  0
  3 16  1  0  0  0  0
  3 25  1  0  0  0  0
  5  7  2  0  0  0  0
  5  9  1  0  0  0  0
  6  7  1  0  0  0  0
  6 10  1  0  0  0  0
  6  4  2  0  0  0  0
  7 11  1  0  0  0  0
  8  4  1  0  0  0  0
  8 12  1  0  0  0  0
  9  8  2  0  0  0  0
 10 14  2  0  0  0  0
 10 18  1  0  0  0  0
 11 15  2  0  0  0  0
 12 20  1  0  0  0  0
 13 17  2  0  0  0  0
 13  9  1  0  0  0  0
 14 15  1  0  0  0  0
 16 12  2  0  0  0  0
 17 16  1  0  0  0  0
 19 11  1  0  0  0  0
 21 13  1  0  0  0  0
 22 17  1  0  0  0  0
 23  1  1  0  0  0  0
M  END
