OH_R1368_anion
 OpenBabel03162120083D

 26 28  0  0  0  0  0  0  0  0999 V2000
   -1.1890   -3.4009    0.0000 O   0  0  0  0  0  0  0  0  0  0  0  0
    3.5890   -3.5004    0.0000 O   0  0  0  0  0  0  0  0  0  0  0  0
   -1.2403   -0.7473    0.0000 N   0  0  0  0  0  0  0  0  0  0  0  0
    1.2362    0.7365    0.0000 N   0  0  0  0  0  0  0  0  0  0  0  0
   -1.2419    0.6129    0.0000 C   0  0  0  0  0  0  0  0  0  0  0  0
    0.0000    1.3320    0.0000 C   0  0  0  0  0  0  0  0  0  0  0  0
   -0.0056   -1.3428    0.0000 C   0  0  0  0  0  0  0  0  0  0  0  0
    1.2340   -0.6231    0.0000 C   0  0  0  0  0  0  0  0  0  0  0  0
   -2.4296    2.7328    0.0000 C   0  0  0  0  0  0  0  0  0  0  0  0
   -1.2210    3.4585    0.0000 C   0  0  0  0  0  0  0  0  0  0  0  0
   -2.4580    1.3474    0.0000 C   0  0  0  0  0  0  0  0  0  0  0  0
   -0.0245    2.7470    0.0000 C   0  0  0  0  0  0  0  0  0  0  0  0
    0.0196   -2.7611    0.0000 C   0  0  0  0  0  0  0  0  0  0  0  0
    2.4468   -1.3639    0.0000 C   0  0  0  0  0  0  0  0  0  0  0  0
    1.2120   -3.4771    0.0000 C   0  0  0  0  0  0  0  0  0  0  0  0
    2.4172   -2.7522    0.0000 C   0  0  0  0  0  0  0  0  0  0  0  0
   -3.4032    0.8151    0.0000 H   0  0  0  0  0  0  0  0  0  0  0  0
   -1.8370   -2.6615    0.0000 H   0  0  0  0  0  0  0  0  0  0  0  0
    4.3328   -2.8849    0.0000 H   0  0  0  0  0  0  0  0  0  0  0  0
   -1.2084    4.5459    0.0000 H   0  0  0  0  0  0  0  0  0  0  0  0
    3.3883   -0.8177    0.0000 H   0  0  0  0  0  0  0  0  0  0  0  0
    1.1826    3.3925    0.0000 O   0  0  0  0  0  0  0  0  0  0  0  0
    1.8316    2.6540    0.0000 H   0  0  0  0  0  0  0  0  0  0  0  0
    1.2172   -4.5611    0.0000 H   0  0  0  0  0  0  0  0  0  0  0  0
   -3.6475    3.4049    0.0000 O   0  0  0  0  0  0  0  0  0  0  0  0
   -3.4682    4.3532    0.0000 H   0  0  0  0  0  0  0  0  0  0  0  0
  1 13  1  0  0  0  0
  5  3  1  0  0  0  0
  6  5  1  0  0  0  0
  6  4  1  0  0  0  0
  7  3  2  0  0  0  0
  8  7  1  0  0  0  0
  8  4  2  0  0  0  0
 10  9  2  0  0  0  0
 11  9  1  0  0  0  0
 11  5  2  0  0  0  0
 12 10  1  0  0  0  0
 12  6  2  0  0  0  0
 13  7  1  0  0  0  0
 14 21  1  0  0  0  0
 14 16  2  0  0  0  0
 14  8  1  0  0  0  0
 15 13  2  0  0  0  0
 16 15  1  0  0  0  0
 16  2  1  0  0  0  0
 17 11  1  0  0  0  0
 18  1  1  0  0  0  0
 19  2  1  0  0  0  0
 20 10  1  0  0  0  0
 22 12  1  0  0  0  0
 23 22  1  0  0  0  0
 24 15  1  0  0  0  0
 25  9  1  0  0  0  0
 26 25  1  0  0  0  0
M  END
