OH_R23_anion
 OpenBabel02252114183D

 24 26  0  0  0  0  0  0  0  0999 V2000
    0.0000    1.3558   -4.1318 O   0  0  0  0  0  0  0  0  0  0  0  0
    0.0000    1.4429    0.7052 N   0  0  0  0  0  0  0  0  0  0  0  0
    0.0000   -1.4429    0.7052 N   0  0  0  0  0  0  0  0  0  0  0  0
    0.0000    0.7236   -0.4484 C   0  0  0  0  0  0  0  0  0  0  0  0
    0.0000    0.7245    1.8625 C   0  0  0  0  0  0  0  0  0  0  0  0
    0.0000   -0.7236   -0.4484 C   0  0  0  0  0  0  0  0  0  0  0  0
    0.0000   -0.7245    1.8625 C   0  0  0  0  0  0  0  0  0  0  0  0
    0.0000    1.3918   -1.6976 C   0  0  0  0  0  0  0  0  0  0  0  0
    0.0000    1.4004    3.1092 C   0  0  0  0  0  0  0  0  0  0  0  0
    0.0000   -1.3918   -1.6976 C   0  0  0  0  0  0  0  0  0  0  0  0
    0.0000   -1.4004    3.1092 C   0  0  0  0  0  0  0  0  0  0  0  0
    0.0000    0.7029   -2.9066 C   0  0  0  0  0  0  0  0  0  0  0  0
    0.0000    0.7040    4.3162 C   0  0  0  0  0  0  0  0  0  0  0  0
    0.0000   -0.7029   -2.9066 C   0  0  0  0  0  0  0  0  0  0  0  0
    0.0000   -0.7040    4.3162 C   0  0  0  0  0  0  0  0  0  0  0  0
    0.0000    2.4810   -1.6852 H   0  0  0  0  0  0  0  0  0  0  0  0
    0.0000    2.4877    3.0851 H   0  0  0  0  0  0  0  0  0  0  0  0
    0.0000   -2.4810   -1.6852 H   0  0  0  0  0  0  0  0  0  0  0  0
    0.0000   -2.4877    3.0851 H   0  0  0  0  0  0  0  0  0  0  0  0
    0.0000    2.3042   -3.9515 H   0  0  0  0  0  0  0  0  0  0  0  0
    0.0000    1.2491    5.2581 H   0  0  0  0  0  0  0  0  0  0  0  0
    0.0000   -1.2491    5.2581 H   0  0  0  0  0  0  0  0  0  0  0  0
    0.0000   -1.3558   -4.1318 O   0  0  0  0  0  0  0  0  0  0  0  0
    0.0000   -2.3042   -3.9515 H   0  0  0  0  0  0  0  0  0  0  0  0
  1 20  1  0  0  0  0
  1 12  1  0  0  0  0
  2  5  1  0  0  0  0
  3  7  1  0  0  0  0
  4  6  1  0  0  0  0
  4  2  2  0  0  0  0
  5  9  1  0  0  0  0
  6  3  2  0  0  0  0
  7  5  2  0  0  0  0
  7 11  1  0  0  0  0
  8 16  1  0  0  0  0
  8  4  1  0  0  0  0
  9 13  2  0  0  0  0
 10 18  1  0  0  0  0
 10  6  1  0  0  0  0
 11 15  2  0  0  0  0
 12 14  1  0  0  0  0
 12  8  2  0  0  0  0
 13 15  1  0  0  0  0
 13 21  1  0  0  0  0
 14 10  2  0  0  0  0
 15 22  1  0  0  0  0
 17  9  1  0  0  0  0
 19 11  1  0  0  0  0
 23 24  1  0  0  0  0
 23 14  1  0  0  0  0
M  END
