OH_R27_anion
 OpenBabel03162103393D

 24 26  0  0  0  0  0  0  0  0999 V2000
    3.7405   -3.3122    0.0000 O   0  0  0  0  0  0  0  0  0  0  0  0
    1.2287    0.7543    0.0000 N   0  0  0  0  0  0  0  0  0  0  0  0
   -1.2287   -0.7543    0.0000 N   0  0  0  0  0  0  0  0  0  0  0  0
    1.2287   -0.5994    0.0000 C   0  0  0  0  0  0  0  0  0  0  0  0
    0.0053    1.3623    0.0000 C   0  0  0  0  0  0  0  0  0  0  0  0
   -0.0053   -1.3623    0.0000 C   0  0  0  0  0  0  0  0  0  0  0  0
   -1.2287    0.5994    0.0000 C   0  0  0  0  0  0  0  0  0  0  0  0
    2.4660   -1.2999    0.0000 C   0  0  0  0  0  0  0  0  0  0  0  0
   -0.0774    2.7716    0.0000 C   0  0  0  0  0  0  0  0  0  0  0  0
    0.0774   -2.7716    0.0000 C   0  0  0  0  0  0  0  0  0  0  0  0
   -2.4660    1.2999    0.0000 C   0  0  0  0  0  0  0  0  0  0  0  0
    2.4954   -2.6850    0.0000 C   0  0  0  0  0  0  0  0  0  0  0  0
   -1.3066    3.4363    0.0000 C   0  0  0  0  0  0  0  0  0  0  0  0
    1.3066   -3.4363    0.0000 C   0  0  0  0  0  0  0  0  0  0  0  0
   -2.4954    2.6850    0.0000 C   0  0  0  0  0  0  0  0  0  0  0  0
    3.3883   -0.7276    0.0000 H   0  0  0  0  0  0  0  0  0  0  0  0
    0.8552    3.3298    0.0000 H   0  0  0  0  0  0  0  0  0  0  0  0
   -0.8552   -3.3298    0.0000 H   0  0  0  0  0  0  0  0  0  0  0  0
   -3.3883    0.7276    0.0000 H   0  0  0  0  0  0  0  0  0  0  0  0
    1.3456   -4.5254    0.0000 H   0  0  0  0  0  0  0  0  0  0  0  0
   -1.3456    4.5254    0.0000 H   0  0  0  0  0  0  0  0  0  0  0  0
   -3.7405    3.3122    0.0000 O   0  0  0  0  0  0  0  0  0  0  0  0
   -3.5935    4.2660    0.0000 H   0  0  0  0  0  0  0  0  0  0  0  0
    3.5935   -4.2660    0.0000 H   0  0  0  0  0  0  0  0  0  0  0  0
  1 12  1  0  0  0  0
  4  2  1  0  0  0  0
  5  2  2  0  0  0  0
  6  4  1  0  0  0  0
  6  3  1  0  0  0  0
  7  5  1  0  0  0  0
  7  3  2  0  0  0  0
  8  4  2  0  0  0  0
  9  5  1  0  0  0  0
 10  6  2  0  0  0  0
 11  7  1  0  0  0  0
 12  8  1  0  0  0  0
 13 21  1  0  0  0  0
 13 15  1  0  0  0  0
 13  9  2  0  0  0  0
 14 12  2  0  0  0  0
 14 10  1  0  0  0  0
 15 11  2  0  0  0  0
 16  8  1  0  0  0  0
 17  9  1  0  0  0  0
 18 10  1  0  0  0  0
 19 11  1  0  0  0  0
 20 14  1  0  0  0  0
 22 15  1  0  0  0  0
 23 22  1  0  0  0  0
 24  1  1  0  0  0  0
M  END
