OH_R1238_anion
 OpenBabel02212111253D

 26 28  0  0  0  0  0  0  0  0999 V2000
    1.2244    2.8625    0.0000 O   0  0  0  0  0  0  0  0  0  0  0  0
   -1.1754    4.3389    0.0000 O   0  0  0  0  0  0  0  0  0  0  0  0
   -3.5400    3.0421    0.0000 O   0  0  0  0  0  0  0  0  0  0  0  0
    1.2197    0.2028    0.0000 N   0  0  0  0  0  0  0  0  0  0  0  0
   -1.2676   -1.2597    0.0000 N   0  0  0  0  0  0  0  0  0  0  0  0
    1.2028   -1.1550    0.0000 C   0  0  0  0  0  0  0  0  0  0  0  0
   -0.0524   -1.8874    0.0000 C   0  0  0  0  0  0  0  0  0  0  0  0
    0.0000    0.8175    0.0000 C   0  0  0  0  0  0  0  0  0  0  0  0
   -1.2397    0.1006    0.0000 C   0  0  0  0  0  0  0  0  0  0  0  0
    2.4227   -3.2666    0.0000 C   0  0  0  0  0  0  0  0  0  0  0  0
    1.2195   -3.9903    0.0000 C   0  0  0  0  0  0  0  0  0  0  0  0
    2.4218   -1.8788    0.0000 C   0  0  0  0  0  0  0  0  0  0  0  0
    0.0044   -3.2986    0.0000 C   0  0  0  0  0  0  0  0  0  0  0  0
    0.0091    2.2368    0.0000 C   0  0  0  0  0  0  0  0  0  0  0  0
   -2.4431    0.8547    0.0000 C   0  0  0  0  0  0  0  0  0  0  0  0
   -1.1805    2.9555    0.0000 C   0  0  0  0  0  0  0  0  0  0  0  0
   -2.3939    2.2402    0.0000 C   0  0  0  0  0  0  0  0  0  0  0  0
    3.3580   -1.3292    0.0000 H   0  0  0  0  0  0  0  0  0  0  0  0
    1.8576    2.1108    0.0000 H   0  0  0  0  0  0  0  0  0  0  0  0
   -2.1016    4.6192    0.0000 H   0  0  0  0  0  0  0  0  0  0  0  0
   -4.3132    2.4655    0.0000 H   0  0  0  0  0  0  0  0  0  0  0  0
    1.2341   -5.0800    0.0000 H   0  0  0  0  0  0  0  0  0  0  0  0
   -3.3924    0.3227    0.0000 H   0  0  0  0  0  0  0  0  0  0  0  0
   -0.9393   -3.8377    0.0000 H   0  0  0  0  0  0  0  0  0  0  0  0
    3.6554   -3.9156    0.0000 O   0  0  0  0  0  0  0  0  0  0  0  0
    3.4925   -4.8669    0.0000 H   0  0  0  0  0  0  0  0  0  0  0  0
  6  4  1  0  0  0  0
  7  6  1  0  0  0  0
  7  5  1  0  0  0  0
  8  4  2  0  0  0  0
  9  8  1  0  0  0  0
  9  5  2  0  0  0  0
 11 10  2  0  0  0  0
 12 10  1  0  0  0  0
 12  6  2  0  0  0  0
 13 11  1  0  0  0  0
 13  7  2  0  0  0  0
 14 16  2  0  0  0  0
 14  1  1  0  0  0  0
 14  8  1  0  0  0  0
 15  9  1  0  0  0  0
 16  2  1  0  0  0  0
 17 16  1  0  0  0  0
 17 15  2  0  0  0  0
 17  3  1  0  0  0  0
 18 12  1  0  0  0  0
 19  1  1  0  0  0  0
 20  2  1  0  0  0  0
 21  3  1  0  0  0  0
 22 11  1  0  0  0  0
 23 15  1  0  0  0  0
 24 13  1  0  0  0  0
 25 10  1  0  0  0  0
 26 25  1  0  0  0  0
M  END
