OH_R127_anion
 OpenBabel02222114233D

 25 27  0  0  0  0  0  0  0  0999 V2000
    0.9178    4.7100    0.0000 O   0  0  0  0  0  0  0  0  0  0  0  0
   -1.1685    0.4234    0.0000 N   0  0  0  0  0  0  0  0  0  0  0  0
    1.4183   -0.8649    0.0000 N   0  0  0  0  0  0  0  0  0  0  0  0
    0.0000    1.1164    0.0000 C   0  0  0  0  0  0  0  0  0  0  0  0
   -1.0467   -0.9398    0.0000 C   0  0  0  0  0  0  0  0  0  0  0  0
    1.2948    0.4987    0.0000 C   0  0  0  0  0  0  0  0  0  0  0  0
    0.2611   -1.5718    0.0000 C   0  0  0  0  0  0  0  0  0  0  0  0
   -0.0915    2.5274    0.0000 C   0  0  0  0  0  0  0  0  0  0  0  0
   -2.1946   -1.7605    0.0000 C   0  0  0  0  0  0  0  0  0  0  0  0
    2.4327    1.3411    0.0000 C   0  0  0  0  0  0  0  0  0  0  0  0
    0.3140   -2.9928    0.0000 C   0  0  0  0  0  0  0  0  0  0  0  0
    1.0385    3.3285    0.0000 C   0  0  0  0  0  0  0  0  0  0  0  0
   -2.1111   -3.1545    0.0000 C   0  0  0  0  0  0  0  0  0  0  0  0
    2.3114    2.7318    0.0000 C   0  0  0  0  0  0  0  0  0  0  0  0
   -0.8443   -3.7578    0.0000 C   0  0  0  0  0  0  0  0  0  0  0  0
   -3.1639   -1.2680    0.0000 H   0  0  0  0  0  0  0  0  0  0  0  0
    3.4122    0.8711    0.0000 H   0  0  0  0  0  0  0  0  0  0  0  0
    1.2987   -3.4581    0.0000 H   0  0  0  0  0  0  0  0  0  0  0  0
    3.1880    3.3732    0.0000 H   0  0  0  0  0  0  0  0  0  0  0  0
   -0.0309    4.9054    0.0000 H   0  0  0  0  0  0  0  0  0  0  0  0
   -3.0007   -3.7769    0.0000 H   0  0  0  0  0  0  0  0  0  0  0  0
   -1.3461    3.1051    0.0000 O   0  0  0  0  0  0  0  0  0  0  0  0
   -1.9498    2.3310    0.0000 H   0  0  0  0  0  0  0  0  0  0  0  0
   -0.7989   -5.1493    0.0000 O   0  0  0  0  0  0  0  0  0  0  0  0
    0.1295   -5.4147    0.0000 H   0  0  0  0  0  0  0  0  0  0  0  0
  1 12  1  0  0  0  0
  4  2  1  0  0  0  0
  5  2  2  0  0  0  0
  6  4  1  0  0  0  0
  6  3  1  0  0  0  0
  7  5  1  0  0  0  0
  7  3  2  0  0  0  0
  8  4  2  0  0  0  0
  9  5  1  0  0  0  0
 10  6  2  0  0  0  0
 11  7  1  0  0  0  0
 12  8  1  0  0  0  0
 13 21  1  0  0  0  0
 13 15  1  0  0  0  0
 13  9  2  0  0  0  0
 14 12  2  0  0  0  0
 14 10  1  0  0  0  0
 15 11  2  0  0  0  0
 16  9  1  0  0  0  0
 17 10  1  0  0  0  0
 18 11  1  0  0  0  0
 19 14  1  0  0  0  0
 20  1  1  0  0  0  0
 22  8  1  0  0  0  0
 23 22  1  0  0  0  0
 24 15  1  0  0  0  0
 25 24  1  0  0  0  0
M  END
