OH_R1478_anion
 OpenBabel03162120083D

 26 28  0  0  0  0  0  0  0  0999 V2000
    2.6833   -2.7855    0.0001 O   0  0  0  0  0  0  0  0  0  0  0  0
    0.3399   -1.4409   -0.0000 N   0  0  0  0  0  0  0  0  0  0  0  0
    0.3494    1.4471   -0.0000 N   0  0  0  0  0  0  0  0  0  0  0  0
   -0.8166   -0.7178   -0.0000 C   0  0  0  0  0  0  0  0  0  0  0  0
   -0.8151    0.7359   -0.0000 C   0  0  0  0  0  0  0  0  0  0  0  0
    1.4942   -0.7117    0.0000 C   0  0  0  0  0  0  0  0  0  0  0  0
    1.4978    0.7097   -0.0000 C   0  0  0  0  0  0  0  0  0  0  0  0
   -3.2577   -0.6754   -0.0000 C   0  0  0  0  0  0  0  0  0  0  0  0
   -3.2608    0.7271    0.0000 C   0  0  0  0  0  0  0  0  0  0  0  0
   -2.0641   -1.3857   -0.0001 C   0  0  0  0  0  0  0  0  0  0  0  0
   -2.0557    1.4176   -0.0000 C   0  0  0  0  0  0  0  0  0  0  0  0
    2.7329   -1.4081    0.0000 C   0  0  0  0  0  0  0  0  0  0  0  0
    2.7411    1.3989   -0.0000 C   0  0  0  0  0  0  0  0  0  0  0  0
    3.9329   -0.7176    0.0000 C   0  0  0  0  0  0  0  0  0  0  0  0
    3.9370    0.7013   -0.0000 C   0  0  0  0  0  0  0  0  0  0  0  0
   -2.0617   -2.4744   -0.0001 H   0  0  0  0  0  0  0  0  0  0  0  0
    1.7248   -2.9831    0.0001 H   0  0  0  0  0  0  0  0  0  0  0  0
    4.8680   -1.2703    0.0000 H   0  0  0  0  0  0  0  0  0  0  0  0
    4.8752    1.2484   -0.0000 H   0  0  0  0  0  0  0  0  0  0  0  0
    2.6995    2.7755   -0.0000 O   0  0  0  0  0  0  0  0  0  0  0  0
    1.7420    2.9796   -0.0000 H   0  0  0  0  0  0  0  0  0  0  0  0
   -2.0562    2.5029    0.0000 H   0  0  0  0  0  0  0  0  0  0  0  0
   -4.4601    1.4193    0.0001 O   0  0  0  0  0  0  0  0  0  0  0  0
   -5.1696    0.7610   -0.0001 H   0  0  0  0  0  0  0  0  0  0  0  0
   -4.5162   -1.2856   -0.0001 O   0  0  0  0  0  0  0  0  0  0  0  0
   -4.3946   -2.2424    0.0005 H   0  0  0  0  0  0  0  0  0  0  0  0
  1 17  1  0  0  0  0
  2  6  1  0  0  0  0
  3  7  1  0  0  0  0
  4  2  2  0  0  0  0
  5  4  1  0  0  0  0
  5  3  2  0  0  0  0
  5 11  1  0  0  0  0
  6 12  1  0  0  0  0
  7 13  1  0  0  0  0
  7  6  2  0  0  0  0
  8  9  1  0  0  0  0
  9 23  1  0  0  0  0
 10  4  1  0  0  0  0
 10  8  2  0  0  0  0
 11 22  1  0  0  0  0
 11  9  2  0  0  0  0
 12  1  1  0  0  0  0
 13 20  1  0  0  0  0
 14 18  1  0  0  0  0
 14 12  2  0  0  0  0
 15 13  2  0  0  0  0
 15 14  1  0  0  0  0
 16 10  1  0  0  0  0
 19 15  1  0  0  0  0
 21 20  1  0  0  0  0
 24 23  1  0  0  0  0
 25  8  1  0  0  0  0
 25 26  1  0  0  0  0
M  END
