OH_R17_anion
 OpenBabel02182105543D

 24 26  0  0  0  0  0  0  0  0999 V2000
   -3.0070    2.1747   -0.0000 O   0  0  0  0  0  0  0  0  0  0  0  0
   -0.4105    1.2974    0.0000 N   0  0  0  0  0  0  0  0  0  0  0  0
    0.1104   -1.5380   -0.0000 N   0  0  0  0  0  0  0  0  0  0  0  0
   -1.4128    0.3813   -0.0000 C   0  0  0  0  0  0  0  0  0  0  0  0
   -1.1599   -1.0434   -0.0000 C   0  0  0  0  0  0  0  0  0  0  0  0
    0.8587    0.7972    0.0000 C   0  0  0  0  0  0  0  0  0  0  0  0
    1.1160   -0.6278   -0.0000 C   0  0  0  0  0  0  0  0  0  0  0  0
   -2.7718    0.8103   -0.0000 C   0  0  0  0  0  0  0  0  0  0  0  0
   -2.2538   -1.9475   -0.0000 C   0  0  0  0  0  0  0  0  0  0  0  0
   -3.8259   -0.1007   -0.0000 C   0  0  0  0  0  0  0  0  0  0  0  0
   -3.5631   -1.4847   -0.0000 C   0  0  0  0  0  0  0  0  0  0  0  0
    1.9639    1.6798    0.0000 C   0  0  0  0  0  0  0  0  0  0  0  0
    2.4642   -1.0714   -0.0000 C   0  0  0  0  0  0  0  0  0  0  0  0
    3.2820    1.2185    0.0000 C   0  0  0  0  0  0  0  0  0  0  0  0
    3.5171   -0.1641    0.0000 C   0  0  0  0  0  0  0  0  0  0  0  0
   -2.0263   -3.0100   -0.0000 H   0  0  0  0  0  0  0  0  0  0  0  0
   -4.3936   -2.1871   -0.0000 H   0  0  0  0  0  0  0  0  0  0  0  0
    1.7503    2.7455    0.0000 H   0  0  0  0  0  0  0  0  0  0  0  0
    2.6429   -2.1460   -0.0000 H   0  0  0  0  0  0  0  0  0  0  0  0
    4.1239    1.9043    0.0000 H   0  0  0  0  0  0  0  0  0  0  0  0
   -3.9638    2.3036    0.0001 H   0  0  0  0  0  0  0  0  0  0  0  0
   -4.8531    0.2643   -0.0000 H   0  0  0  0  0  0  0  0  0  0  0  0
    4.8435   -0.5897    0.0000 O   0  0  0  0  0  0  0  0  0  0  0  0
    4.8422   -1.5553    0.0001 H   0  0  0  0  0  0  0  0  0  0  0  0
  1 21  1  0  0  0  0
  2  6  2  0  0  0  0
  2  4  1  0  0  0  0
  3  5  1  0  0  0  0
  3  7  2  0  0  0  0
  5  9  1  0  0  0  0
  5  4  2  0  0  0  0
  7  6  1  0  0  0  0
  8  4  1  0  0  0  0
  8  1  1  0  0  0  0
  9 11  2  0  0  0  0
 10 11  1  0  0  0  0
 10  8  2  0  0  0  0
 12  6  1  0  0  0  0
 12 14  2  0  0  0  0
 12 18  1  0  0  0  0
 13 15  2  0  0  0  0
 13  7  1  0  0  0  0
 14 20  1  0  0  0  0
 15 14  1  0  0  0  0
 16  9  1  0  0  0  0
 17 11  1  0  0  0  0
 19 13  1  0  0  0  0
 22 10  1  0  0  0  0
 23 15  1  0  0  0  0
 23 24  1  0  0  0  0
M  END
