OH_R12_anion
 OpenBabel02252114183D

 24 26  0  0  0  0  0  0  0  0999 V2000
   -2.2480   -2.1547    0.0060 O   0  0  0  0  0  0  0  0  0  0  0  0
   -4.3583   -0.4864   -0.0317 O   0  0  0  0  0  0  0  0  0  0  0  0
    0.3618   -1.2050   -0.0119 N   0  0  0  0  0  0  0  0  0  0  0  0
    0.8000    1.6449    0.0010 N   0  0  0  0  0  0  0  0  0  0  0  0
   -0.6657   -0.3211   -0.0139 C   0  0  0  0  0  0  0  0  0  0  0  0
   -0.4565    1.1127   -0.0054 C   0  0  0  0  0  0  0  0  0  0  0  0
    1.6143   -0.6688   -0.0035 C   0  0  0  0  0  0  0  0  0  0  0  0
    1.8337    0.7625    0.0015 C   0  0  0  0  0  0  0  0  0  0  0  0
   -2.0079   -0.7977   -0.0083 C   0  0  0  0  0  0  0  0  0  0  0  0
   -1.5755    1.9799   -0.0022 C   0  0  0  0  0  0  0  0  0  0  0  0
   -3.0759    0.0932   -0.0076 C   0  0  0  0  0  0  0  0  0  0  0  0
   -2.8770    1.4803   -0.0123 C   0  0  0  0  0  0  0  0  0  0  0  0
    2.7423   -1.5270   -0.0015 C   0  0  0  0  0  0  0  0  0  0  0  0
    3.1698    1.2421    0.0081 C   0  0  0  0  0  0  0  0  0  0  0  0
    4.0415   -1.0225    0.0050 C   0  0  0  0  0  0  0  0  0  0  0  0
    4.2556    0.3696    0.0098 C   0  0  0  0  0  0  0  0  0  0  0  0
   -1.3852    3.0492   -0.0007 H   0  0  0  0  0  0  0  0  0  0  0  0
   -3.7345    2.1506   -0.0387 H   0  0  0  0  0  0  0  0  0  0  0  0
    2.5523   -2.5975   -0.0057 H   0  0  0  0  0  0  0  0  0  0  0  0
    3.3119    2.3203    0.0117 H   0  0  0  0  0  0  0  0  0  0  0  0
    4.8891   -1.7049    0.0062 H   0  0  0  0  0  0  0  0  0  0  0  0
    5.2695    0.7651    0.0148 H   0  0  0  0  0  0  0  0  0  0  0  0
   -3.2102   -2.2575    0.0494 H   0  0  0  0  0  0  0  0  0  0  0  0
   -4.9668    0.1052    0.4263 H   0  0  0  0  0  0  0  0  0  0  0  0
  1 23  1  0  0  0  0
  2 11  1  0  0  0  0
  2 24  1  0  0  0  0
  3  7  1  0  0  0  0
  4  8  1  0  0  0  0
  5  3  2  0  0  0  0
  5  9  1  0  0  0  0
  5  6  1  0  0  0  0
  6 10  1  0  0  0  0
  6  4  2  0  0  0  0
  7 13  2  0  0  0  0
  7  8  1  0  0  0  0
  8 14  2  0  0  0  0
  9 11  2  0  0  0  0
  9  1  1  0  0  0  0
 10 17  1  0  0  0  0
 12 11  1  0  0  0  0
 12 10  2  0  0  0  0
 13 15  1  0  0  0  0
 14 16  1  0  0  0  0
 14 20  1  0  0  0  0
 15 21  1  0  0  0  0
 15 16  2  0  0  0  0
 16 22  1  0  0  0  0
 18 12  1  0  0  0  0
 19 13  1  0  0  0  0
M  END
