S(CH3)2_R2_anion
 OpenBabel02252114183D

 26 28  0  0  0  0  0  0  0  0999 V2000
   -0.8684   -1.2471   -0.2136 N   0  0  0  0  0  0  0  0  0  0  0  0
   -1.3903    1.5699    0.1072 N   0  0  0  0  0  0  0  0  0  0  0  0
    0.1349   -0.3284   -0.1900 C   0  0  0  0  0  0  0  0  0  0  0  0
   -0.1310    1.0877   -0.0283 C   0  0  0  0  0  0  0  0  0  0  0  0
   -2.1326   -0.7635   -0.0759 C   0  0  0  0  0  0  0  0  0  0  0  0
   -2.3964    0.6505    0.0850 C   0  0  0  0  0  0  0  0  0  0  0  0
    1.4780   -0.7569   -0.3297 C   0  0  0  0  0  0  0  0  0  0  0  0
    0.9728    1.9818   -0.0169 C   0  0  0  0  0  0  0  0  0  0  0  0
    2.5419    0.1501   -0.2993 C   0  0  0  0  0  0  0  0  0  0  0  0
   -3.2327   -1.6596   -0.0894 C   0  0  0  0  0  0  0  0  0  0  0  0
   -3.7405    1.0785    0.2223 C   0  0  0  0  0  0  0  0  0  0  0  0
    2.2805    1.5297   -0.1480 C   0  0  0  0  0  0  0  0  0  0  0  0
   -4.5409   -1.2049    0.0480 C   0  0  0  0  0  0  0  0  0  0  0  0
   -4.7970    0.1717    0.2048 C   0  0  0  0  0  0  0  0  0  0  0  0
    0.7565    3.0408    0.0991 H   0  0  0  0  0  0  0  0  0  0  0  0
   -3.0121   -2.7171   -0.2119 H   0  0  0  0  0  0  0  0  0  0  0  0
   -3.9140    2.1452    0.3417 H   0  0  0  0  0  0  0  0  0  0  0  0
    3.1091    2.2327   -0.1376 H   0  0  0  0  0  0  0  0  0  0  0  0
   -5.3660   -1.9142    0.0339 H   0  0  0  0  0  0  0  0  0  0  0  0
   -5.8197    0.5271    0.3121 H   0  0  0  0  0  0  0  0  0  0  0  0
    1.6555   -1.8200   -0.4647 H   0  0  0  0  0  0  0  0  0  0  0  0
    4.2322   -0.4240   -0.4822 S   0  0  0  0  0  0  0  0  0  0  0  0
    4.6417   -0.9199    1.2422 C   0  0  0  0  0  0  0  0  0  0  0  0
    5.6689   -1.2989    1.2341 H   0  0  0  0  0  0  0  0  0  0  0  0
    3.9683   -1.7091    1.5860 H   0  0  0  0  0  0  0  0  0  0  0  0
    4.5770   -0.0634    1.9186 H   0  0  0  0  0  0  0  0  0  0  0  0
  1  3  2  0  0  0  0
  1  5  1  0  0  0  0
  3  4  1  0  0  0  0
  4  8  1  0  0  0  0
  4  2  2  0  0  0  0
  5  6  1  0  0  0  0
  6  2  1  0  0  0  0
  6 11  2  0  0  0  0
  7  9  2  0  0  0  0
  7  3  1  0  0  0  0
  8 15  1  0  0  0  0
  9 12  1  0  0  0  0
 10  5  2  0  0  0  0
 10 13  1  0  0  0  0
 11 17  1  0  0  0  0
 12 18  1  0  0  0  0
 12  8  2  0  0  0  0
 13 14  2  0  0  0  0
 14 11  1  0  0  0  0
 14 20  1  0  0  0  0
 16 10  1  0  0  0  0
 19 13  1  0  0  0  0
 21  7  1  0  0  0  0
 22  9  1  0  0  0  0
 22 23  1  0  0  0  0
 23 25  1  0  0  0  0
 23 26  1  0  0  0  0
 24 23  1  0  0  0  0
M  END
