COOCH3_R1_anion
 OpenBabel03202104243D

 28 30  0  0  0  0  0  0  0  0999 V2000
    1.6782    1.7741   -0.0117 N   0  0  0  0  0  0  0  0  0  0  0  0
    0.2706   -0.7134    0.0126 N   0  0  0  0  0  0  0  0  0  0  0  0
    0.3223    1.7227   -0.0064 C   0  0  0  0  0  0  0  0  0  0  0  0
   -0.4034    0.4489    0.0028 C   0  0  0  0  0  0  0  0  0  0  0  0
   -0.3942    2.9408   -0.0089 C   0  0  0  0  0  0  0  0  0  0  0  0
    2.3422    0.5916   -0.0051 C   0  0  0  0  0  0  0  0  0  0  0  0
    1.6314   -0.6602    0.0088 C   0  0  0  0  0  0  0  0  0  0  0  0
   -1.7897    2.9554   -0.0021 C   0  0  0  0  0  0  0  0  0  0  0  0
   -1.8501    0.5025    0.0052 C   0  0  0  0  0  0  0  0  0  0  0  0
   -2.5000    1.7574    0.0054 C   0  0  0  0  0  0  0  0  0  0  0  0
    3.7622    0.5733   -0.0105 C   0  0  0  0  0  0  0  0  0  0  0  0
    2.3765   -1.8660    0.0185 C   0  0  0  0  0  0  0  0  0  0  0  0
    4.4633   -0.6259   -0.0015 C   0  0  0  0  0  0  0  0  0  0  0  0
    3.7670   -1.8535    0.0134 C   0  0  0  0  0  0  0  0  0  0  0  0
   -3.5842    1.7579    0.0100 H   0  0  0  0  0  0  0  0  0  0  0  0
    4.2763    1.5313   -0.0215 H   0  0  0  0  0  0  0  0  0  0  0  0
    1.8178   -2.7982    0.0295 H   0  0  0  0  0  0  0  0  0  0  0  0
    5.5513   -0.6190   -0.0056 H   0  0  0  0  0  0  0  0  0  0  0  0
    4.3190   -2.7909    0.0208 H   0  0  0  0  0  0  0  0  0  0  0  0
   -2.3259    3.9017   -0.0035 H   0  0  0  0  0  0  0  0  0  0  0  0
    0.1872    3.8590   -0.0156 H   0  0  0  0  0  0  0  0  0  0  0  0
   -2.7655   -0.6532    0.0086 C   0  0  0  0  0  0  0  0  0  0  0  0
   -3.9960   -0.5603    0.0400 O   0  0  0  0  0  0  0  0  0  0  0  0
   -2.1757   -1.8781   -0.0313 O   0  0  0  0  0  0  0  0  0  0  0  0
   -3.0710   -2.9879   -0.0288 C   0  0  0  0  0  0  0  0  0  0  0  0
   -2.4315   -3.8728   -0.0593 H   0  0  0  0  0  0  0  0  0  0  0  0
   -3.7335   -2.9661   -0.9006 H   0  0  0  0  0  0  0  0  0  0  0  0
   -3.6906   -2.9963    0.8742 H   0  0  0  0  0  0  0  0  0  0  0  0
  1  3  2  0  0  0  0
  1  6  1  0  0  0  0
  3  4  1  0  0  0  0
  4  9  1  0  0  0  0
  4  2  2  0  0  0  0
  5  3  1  0  0  0  0
  5  8  2  0  0  0  0
  6  7  1  0  0  0  0
  7  2  1  0  0  0  0
  7 12  2  0  0  0  0
  8 10  1  0  0  0  0
  9 10  2  0  0  0  0
  9 22  1  0  0  0  0
 10 15  1  0  0  0  0
 11  6  2  0  0  0  0
 11 13  1  0  0  0  0
 12 17  1  0  0  0  0
 13 14  2  0  0  0  0
 14 12  1  0  0  0  0
 14 19  1  0  0  0  0
 16 11  1  0  0  0  0
 18 13  1  0  0  0  0
 20  8  1  0  0  0  0
 21  5  1  0  0  0  0
 22 23  2  0  0  0  0
 24 25  1  0  0  0  0
 24 22  1  0  0  0  0
 25 28  1  0  0  0  0
 26 25  1  0  0  0  0
 27 25  1  0  0  0  0
M  END
