NH2_R1289_anion
 OpenBabel03202104243D

 30 32  0  0  0  0  0  0  0  0999 V2000
    0.0000   -0.8610    0.0000 N   0  0  0  0  0  0  0  0  0  0  0  0
    0.0000    2.0229    0.0000 N   0  0  0  0  0  0  0  0  0  0  0  0
    2.3973   -2.2617    0.0238 N   0  0  0  0  0  0  0  0  0  0  0  0
    1.1577   -0.1390   -0.0089 C   0  0  0  0  0  0  0  0  0  0  0  0
    1.1604    1.3033   -0.0076 C   0  0  0  0  0  0  0  0  0  0  0  0
   -1.1577   -0.1390    0.0089 C   0  0  0  0  0  0  0  0  0  0  0  0
   -1.1604    1.3033    0.0076 C   0  0  0  0  0  0  0  0  0  0  0  0
    2.3963   -0.8359   -0.0184 C   0  0  0  0  0  0  0  0  0  0  0  0
    2.4088    1.9707   -0.0238 C   0  0  0  0  0  0  0  0  0  0  0  0
    3.6095   -0.1440   -0.0048 C   0  0  0  0  0  0  0  0  0  0  0  0
   -2.3963   -0.8359    0.0184 C   0  0  0  0  0  0  0  0  0  0  0  0
   -2.4088    1.9707    0.0238 C   0  0  0  0  0  0  0  0  0  0  0  0
    3.6098    1.2637   -0.0216 C   0  0  0  0  0  0  0  0  0  0  0  0
   -3.6095   -0.1440    0.0048 C   0  0  0  0  0  0  0  0  0  0  0  0
   -3.6098    1.2637    0.0216 C   0  0  0  0  0  0  0  0  0  0  0  0
   -2.4000    3.0574    0.0299 H   0  0  0  0  0  0  0  0  0  0  0  0
   -4.5596    1.7970    0.0269 H   0  0  0  0  0  0  0  0  0  0  0  0
    1.4271   -2.5694   -0.0141 H   0  0  0  0  0  0  0  0  0  0  0  0
    2.9026   -2.6579   -0.7665 H   0  0  0  0  0  0  0  0  0  0  0  0
    4.8208   -0.8970   -0.0271 N   0  0  0  0  0  0  0  0  0  0  0  0
    4.7266   -1.7429    0.5311 H   0  0  0  0  0  0  0  0  0  0  0  0
    5.6080   -0.3533    0.3100 H   0  0  0  0  0  0  0  0  0  0  0  0
    4.5596    1.7970   -0.0269 H   0  0  0  0  0  0  0  0  0  0  0  0
    2.4000    3.0574   -0.0299 H   0  0  0  0  0  0  0  0  0  0  0  0
   -2.3973   -2.2617   -0.0238 N   0  0  0  0  0  0  0  0  0  0  0  0
   -4.8208   -0.8970    0.0270 N   0  0  0  0  0  0  0  0  0  0  0  0
   -1.4271   -2.5694    0.0141 H   0  0  0  0  0  0  0  0  0  0  0  0
   -2.9026   -2.6579    0.7665 H   0  0  0  0  0  0  0  0  0  0  0  0
   -5.6080   -0.3533   -0.3099 H   0  0  0  0  0  0  0  0  0  0  0  0
   -4.7266   -1.7429   -0.5311 H   0  0  0  0  0  0  0  0  0  0  0  0
  1  6  1  0  0  0  0
  2  7  1  0  0  0  0
  4  5  1  0  0  0  0
  4  1  2  0  0  0  0
  5  2  2  0  0  0  0
  6 11  1  0  0  0  0
  7  6  2  0  0  0  0
  7 12  1  0  0  0  0
  8  4  1  0  0  0  0
  8 10  2  0  0  0  0
  8  3  1  0  0  0  0
  9 13  2  0  0  0  0
  9  5  1  0  0  0  0
 12 16  1  0  0  0  0
 13 10  1  0  0  0  0
 14 11  2  0  0  0  0
 14 15  1  0  0  0  0
 14 26  1  0  0  0  0
 15 12  2  0  0  0  0
 15 17  1  0  0  0  0
 18  3  1  0  0  0  0
 19  3  1  0  0  0  0
 20 10  1  0  0  0  0
 20 22  1  0  0  0  0
 20 21  1  0  0  0  0
 23 13  1  0  0  0  0
 24  9  1  0  0  0  0
 25 27  1  0  0  0  0
 25 11  1  0  0  0  0
 25 28  1  0  0  0  0
 29 26  1  0  0  0  0
 30 26  1  0  0  0  0
M  END
