OH_R28_anion
 OpenBabel03202104243D

 24 26  0  0  0  0  0  0  0  0999 V2000
   -4.8269    1.1627    0.0000 O   0  0  0  0  0  0  0  0  0  0  0  0
    4.7807    1.2157    0.0000 O   0  0  0  0  0  0  0  0  0  0  0  0
    0.0000    1.2285    0.0000 N   0  0  0  0  0  0  0  0  0  0  0  0
   -0.0097   -1.6562    0.0000 N   0  0  0  0  0  0  0  0  0  0  0  0
   -1.1555    0.5150    0.0000 C   0  0  0  0  0  0  0  0  0  0  0  0
    1.1539    0.5104    0.0000 C   0  0  0  0  0  0  0  0  0  0  0  0
   -1.1646   -0.9337    0.0000 C   0  0  0  0  0  0  0  0  0  0  0  0
    1.1499   -0.9401    0.0000 C   0  0  0  0  0  0  0  0  0  0  0  0
   -2.3990    1.1981    0.0000 C   0  0  0  0  0  0  0  0  0  0  0  0
    2.3982    1.1908    0.0000 C   0  0  0  0  0  0  0  0  0  0  0  0
   -2.4151   -1.5977    0.0000 C   0  0  0  0  0  0  0  0  0  0  0  0
    2.3930   -1.6137    0.0000 C   0  0  0  0  0  0  0  0  0  0  0  0
   -3.6012    0.5009    0.0000 C   0  0  0  0  0  0  0  0  0  0  0  0
    3.5933    0.4854    0.0000 C   0  0  0  0  0  0  0  0  0  0  0  0
   -3.6244   -0.9017    0.0000 C   0  0  0  0  0  0  0  0  0  0  0  0
    3.6054   -0.9193    0.0000 C   0  0  0  0  0  0  0  0  0  0  0  0
   -2.3767    2.2872    0.0000 H   0  0  0  0  0  0  0  0  0  0  0  0
    2.3988    2.2763    0.0000 H   0  0  0  0  0  0  0  0  0  0  0  0
   -2.4024   -2.6846    0.0000 H   0  0  0  0  0  0  0  0  0  0  0  0
    2.3756   -2.7005    0.0000 H   0  0  0  0  0  0  0  0  0  0  0  0
   -4.5784   -1.4207    0.0000 H   0  0  0  0  0  0  0  0  0  0  0  0
    4.5515   -1.4603    0.0000 H   0  0  0  0  0  0  0  0  0  0  0  0
   -4.6491    2.1117    0.0000 H   0  0  0  0  0  0  0  0  0  0  0  0
    5.5154    0.5900    0.0000 H   0  0  0  0  0  0  0  0  0  0  0  0
  5  3  1  0  0  0  0
  6  3  2  0  0  0  0
  7  5  1  0  0  0  0
  7  4  1  0  0  0  0
  8  6  1  0  0  0  0
  8  4  2  0  0  0  0
  9  5  2  0  0  0  0
 10  6  1  0  0  0  0
 11  7  2  0  0  0  0
 12  8  1  0  0  0  0
 13 15  2  0  0  0  0
 13  1  1  0  0  0  0
 13  9  1  0  0  0  0
 14 10  2  0  0  0  0
 14  2  1  0  0  0  0
 15 11  1  0  0  0  0
 16 14  1  0  0  0  0
 16 12  2  0  0  0  0
 17  9  1  0  0  0  0
 18 10  1  0  0  0  0
 19 11  1  0  0  0  0
 20 12  1  0  0  0  0
 21 15  1  0  0  0  0
 22 16  1  0  0  0  0
 23  1  1  0  0  0  0
 24  2  1  0  0  0  0
M  END
