OH_R1234_anion
 OpenBabel03202104243D

 26 28  0  0  0  0  0  0  0  0999 V2000
   -1.4324    2.8037    0.0000 O   0  0  0  0  0  0  0  0  0  0  0  0
   -1.5166   -2.7603   -0.0000 O   0  0  0  0  0  0  0  0  0  0  0  0
   -3.8942    1.4195   -0.0000 O   0  0  0  0  0  0  0  0  0  0  0  0
   -3.9147   -1.3095   -0.0000 O   0  0  0  0  0  0  0  0  0  0  0  0
    0.9042    1.4446    0.0000 N   0  0  0  0  0  0  0  0  0  0  0  0
    0.8901   -1.4478    0.0000 N   0  0  0  0  0  0  0  0  0  0  0  0
    2.0609    0.7188    0.0000 C   0  0  0  0  0  0  0  0  0  0  0  0
    2.0549   -0.7351    0.0000 C   0  0  0  0  0  0  0  0  0  0  0  0
   -0.2524    0.7205    0.0000 C   0  0  0  0  0  0  0  0  0  0  0  0
   -0.2533   -0.7029    0.0000 C   0  0  0  0  0  0  0  0  0  0  0  0
    4.5147    0.6843    0.0000 C   0  0  0  0  0  0  0  0  0  0  0  0
    4.5086   -0.7225    0.0000 C   0  0  0  0  0  0  0  0  0  0  0  0
    3.3106    1.3857    0.0000 C   0  0  0  0  0  0  0  0  0  0  0  0
    3.2982   -1.4134    0.0000 C   0  0  0  0  0  0  0  0  0  0  0  0
   -1.4824    1.4320    0.0000 C   0  0  0  0  0  0  0  0  0  0  0  0
   -1.4922   -1.3765   -0.0000 C   0  0  0  0  0  0  0  0  0  0  0  0
   -2.6887    0.7443   -0.0000 C   0  0  0  0  0  0  0  0  0  0  0  0
   -2.6789   -0.6691   -0.0000 C   0  0  0  0  0  0  0  0  0  0  0  0
    3.2946    2.4729    0.0000 H   0  0  0  0  0  0  0  0  0  0  0  0
    3.2729   -2.5006    0.0000 H   0  0  0  0  0  0  0  0  0  0  0  0
   -0.4713    2.9929    0.0000 H   0  0  0  0  0  0  0  0  0  0  0  0
   -0.5684   -3.0048    0.0000 H   0  0  0  0  0  0  0  0  0  0  0  0
   -4.5909    0.7474    0.0000 H   0  0  0  0  0  0  0  0  0  0  0  0
   -3.7396   -2.2615    0.0000 H   0  0  0  0  0  0  0  0  0  0  0  0
    5.4580    1.2263    0.0000 H   0  0  0  0  0  0  0  0  0  0  0  0
    5.4471   -1.2729    0.0000 H   0  0  0  0  0  0  0  0  0  0  0  0
  7  5  1  0  0  0  0
  8  7  1  0  0  0  0
  8  6  1  0  0  0  0
  9  5  2  0  0  0  0
 10  9  1  0  0  0  0
 10  6  2  0  0  0  0
 12 11  2  0  0  0  0
 13 11  1  0  0  0  0
 13  7  2  0  0  0  0
 14 20  1  0  0  0  0
 14 12  1  0  0  0  0
 14  8  2  0  0  0  0
 15  1  1  0  0  0  0
 15  9  1  0  0  0  0
 16 10  1  0  0  0  0
 16  2  1  0  0  0  0
 17 15  2  0  0  0  0
 17  3  1  0  0  0  0
 18 17  1  0  0  0  0
 18 16  2  0  0  0  0
 18  4  1  0  0  0  0
 19 13  1  0  0  0  0
 21  1  1  0  0  0  0
 22  2  1  0  0  0  0
 23  3  1  0  0  0  0
 24  4  1  0  0  0  0
 25 11  1  0  0  0  0
 26 12  1  0  0  0  0
M  END
