OH_R1236_anion
 OpenBabel03202104243D

 26 28  0  0  0  0  0  0  0  0999 V2000
   -0.3597    3.2233    0.0000 O   0  0  0  0  0  0  0  0  0  0  0  0
    2.4154    3.6896    0.0000 O   0  0  0  0  0  0  0  0  0  0  0  0
    4.1203    1.5987    0.0000 O   0  0  0  0  0  0  0  0  0  0  0  0
   -1.3623    0.7665    0.0000 N   0  0  0  0  0  0  0  0  0  0  0  0
    0.3865   -1.5302    0.0000 N   0  0  0  0  0  0  0  0  0  0  0  0
   -1.8647   -0.5038    0.0000 C   0  0  0  0  0  0  0  0  0  0  0  0
   -0.9768   -1.6305    0.0000 C   0  0  0  0  0  0  0  0  0  0  0  0
    0.0000    0.8682    0.0000 C   0  0  0  0  0  0  0  0  0  0  0  0
    0.8857   -0.2597    0.0000 C   0  0  0  0  0  0  0  0  0  0  0  0
   -3.7575   -2.0467    0.0000 C   0  0  0  0  0  0  0  0  0  0  0  0
   -2.8919   -3.1612    0.0000 C   0  0  0  0  0  0  0  0  0  0  0  0
   -3.2625   -0.7463    0.0000 C   0  0  0  0  0  0  0  0  0  0  0  0
   -1.5203   -2.9434    0.0000 C   0  0  0  0  0  0  0  0  0  0  0  0
    0.5295    2.1868    0.0000 C   0  0  0  0  0  0  0  0  0  0  0  0
    2.2808   -0.0155    0.0000 C   0  0  0  0  0  0  0  0  0  0  0  0
    1.9022    2.4058    0.0000 C   0  0  0  0  0  0  0  0  0  0  0  0
    2.7575    1.2884    0.0000 C   0  0  0  0  0  0  0  0  0  0  0  0
   -3.9299    0.1114    0.0000 H   0  0  0  0  0  0  0  0  0  0  0  0
   -1.2298    2.7653    0.0000 H   0  0  0  0  0  0  0  0  0  0  0  0
    3.3792    3.6039    0.0000 H   0  0  0  0  0  0  0  0  0  0  0  0
    4.6210    0.7744    0.0000 H   0  0  0  0  0  0  0  0  0  0  0  0
   -4.8328   -2.2121    0.0000 H   0  0  0  0  0  0  0  0  0  0  0  0
   -3.2757   -4.1772    0.0000 H   0  0  0  0  0  0  0  0  0  0  0  0
    2.9628   -0.8635    0.0000 H   0  0  0  0  0  0  0  0  0  0  0  0
   -0.6263   -3.9836    0.0000 O   0  0  0  0  0  0  0  0  0  0  0  0
    0.2462   -3.5327    0.0000 H   0  0  0  0  0  0  0  0  0  0  0  0
  6  4  1  0  0  0  0
  7  6  1  0  0  0  0
  7  5  1  0  0  0  0
  8  4  2  0  0  0  0
  9  8  1  0  0  0  0
  9  5  2  0  0  0  0
 11 10  2  0  0  0  0
 12 10  1  0  0  0  0
 12  6  2  0  0  0  0
 13 11  1  0  0  0  0
 13  7  2  0  0  0  0
 14 16  2  0  0  0  0
 14  1  1  0  0  0  0
 14  8  1  0  0  0  0
 15  9  1  0  0  0  0
 16  2  1  0  0  0  0
 17 16  1  0  0  0  0
 17 15  2  0  0  0  0
 17  3  1  0  0  0  0
 18 12  1  0  0  0  0
 19  1  1  0  0  0  0
 20  2  1  0  0  0  0
 21  3  1  0  0  0  0
 22 10  1  0  0  0  0
 23 11  1  0  0  0  0
 24 15  1  0  0  0  0
 25 13  1  0  0  0  0
 26 25  1  0  0  0  0
M  END
