S(CH3)2_R1_anion
 OpenBabel03202104243D

 26 28  0  0  0  0  0  0  0  0999 V2000
    2.4771   -1.6994    0.0001 S   0  0  0  0  0  0  0  0  0  0  0  0
   -0.2818   -0.9056    0.0000 N   0  0  0  0  0  0  0  0  0  0  0  0
   -1.3572    1.7607   -0.0000 N   0  0  0  0  0  0  0  0  0  0  0  0
    0.5188    0.1884    0.0000 C   0  0  0  0  0  0  0  0  0  0  0  0
   -0.0162    1.5312   -0.0000 C   0  0  0  0  0  0  0  0  0  0  0  0
   -1.6246   -0.6788   -0.0000 C   0  0  0  0  0  0  0  0  0  0  0  0
   -2.1635    0.6640   -0.0000 C   0  0  0  0  0  0  0  0  0  0  0  0
    1.9351    0.0104    0.0000 C   0  0  0  0  0  0  0  0  0  0  0  0
    0.8853    2.6260   -0.0000 C   0  0  0  0  0  0  0  0  0  0  0  0
    2.7921    1.1129    0.0000 C   0  0  0  0  0  0  0  0  0  0  0  0
   -2.5246   -1.7732    0.0000 C   0  0  0  0  0  0  0  0  0  0  0  0
   -3.5727    0.8261   -0.0001 C   0  0  0  0  0  0  0  0  0  0  0  0
    2.2588    2.4173   -0.0000 C   0  0  0  0  0  0  0  0  0  0  0  0
   -3.9038   -1.5778   -0.0000 C   0  0  0  0  0  0  0  0  0  0  0  0
   -4.4301   -0.2713   -0.0000 C   0  0  0  0  0  0  0  0  0  0  0  0
    0.4620    3.6269   -0.0001 H   0  0  0  0  0  0  0  0  0  0  0  0
    3.8689    0.9850    0.0000 H   0  0  0  0  0  0  0  0  0  0  0  0
   -2.0957   -2.7722    0.0000 H   0  0  0  0  0  0  0  0  0  0  0  0
   -3.9572    1.8432   -0.0001 H   0  0  0  0  0  0  0  0  0  0  0  0
    2.9388    3.2668   -0.0000 H   0  0  0  0  0  0  0  0  0  0  0  0
   -4.5735   -2.4354   -0.0000 H   0  0  0  0  0  0  0  0  0  0  0  0
   -5.5074   -0.1182   -0.0001 H   0  0  0  0  0  0  0  0  0  0  0  0
    4.2944   -1.5179    0.0001 C   0  0  0  0  0  0  0  0  0  0  0  0
    4.6921   -2.5369    0.0001 H   0  0  0  0  0  0  0  0  0  0  0  0
    4.6585   -0.9997    0.8931 H   0  0  0  0  0  0  0  0  0  0  0  0
    4.6585   -0.9997   -0.8930 H   0  0  0  0  0  0  0  0  0  0  0  0
  1 23  1  0  0  0  0
  3  7  2  0  0  0  0
  3  5  1  0  0  0  0
  4  2  1  0  0  0  0
  4  8  1  0  0  0  0
  5  4  2  0  0  0  0
  6 11  1  0  0  0  0
  6  2  2  0  0  0  0
  7  6  1  0  0  0  0
  8  1  1  0  0  0  0
  9  5  1  0  0  0  0
  9 13  2  0  0  0  0
 10  8  2  0  0  0  0
 10 17  1  0  0  0  0
 11 18  1  0  0  0  0
 12 15  2  0  0  0  0
 12  7  1  0  0  0  0
 13 10  1  0  0  0  0
 14 21  1  0  0  0  0
 14 11  2  0  0  0  0
 15 14  1  0  0  0  0
 16  9  1  0  0  0  0
 19 12  1  0  0  0  0
 20 13  1  0  0  0  0
 22 15  1  0  0  0  0
 23 24  1  0  0  0  0
 23 25  1  0  0  0  0
 26 23  1  0  0  0  0
M  END
